api/pglib_opf_case9241_pegase__api.m
%%%%%%%%%%%%%%%%%%%%%%%%%%%%%%%%%%%%%%%%%%%%%%%%%%%%%%%%%%%%%%%%%%%%%%%%%%%
%%%%                                                                  %%%%%
%%%%    IEEE PES Power Grid Library - Optimal Power Flow - v20.04     %%%%%
%%%%          (https://github.com/power-grid-lib/pglib-opf)           %%%%%
%%%%             Benchmark Group - Active Power Increase              %%%%%
%%%%                         12 - July - 2020                         %%%%%
%%%%                                                                  %%%%%
%%%%%%%%%%%%%%%%%%%%%%%%%%%%%%%%%%%%%%%%%%%%%%%%%%%%%%%%%%%%%%%%%%%%%%%%%%%
function mpc = pglib_opf_case9241_pegase__api
mpc.version = '2';
mpc.baseMVA = 100.0;

%% bus data
%	bus_i	type	Pd	Qd	Gs	Bs	area	Vm	Va	baseKV	zone	Vmax	Vmin
mpc.bus = [
	1	 1	 408.65	 98.50	 0.0	 16.61	 0	    1.00000	    0.00000	 220.0	 6	    1.10000	    0.90000;
	2	 2	 0.0	 0.0	 0.0	 0.0	 0	    1.00000	    0.00000	 154.0	 1	    1.10000	    0.90000;
	3	 1	 163.07	 48.80	 0.0	 4.69	 0	    1.00000	    0.00000	 220.0	 5	    1.10000	    0.90000;
	4	 1	 185.11	 23.40	 0.0	 2.1	 0	    1.00000	    0.00000	 220.0	 5	    1.10000	    0.90000;
	5	 1	 49.62	 14.00	 0.0	 13.34	 0	    1.00000	    0.00000	 220.0	 6	    1.10000	    0.90000;
	6	 2	 0.0	 0.0	 0.0	 0.0	 0	    1.00000	    0.00000	 380.0	 6	    1.10000	    0.90000;
	7	 1	 33.51	 10.30	 0.0	 0.65	 0	    1.00000	    0.00000	 110.0	 21	    1.10000	    0.90000;
	8	 2	 0.0	 0.0	 0.0	 0.0	 0	    1.00000	    0.00000	 154.0	 1	    1.10000	    0.90000;
	9	 1	 15.44	 2.00	 0.0	 1.91	 0	    1.00000	    0.00000	 154.0	 1	    1.10000	    0.90000;
	10	 1	 144.71	 24.70	 0.0	 12.44	 0	    1.00000	    0.00000	 220.0	 5	    1.10000	    0.90000;
	11	 1	 0.0	 0.0	 0.0	 0.0	 0	    1.00000	    0.00000	 150.0	 9	    1.10000	    0.90000;
	12	 1	 -6.11	 2.00	 0.0	 0.47	 0	    1.00000	    0.00000	 150.0	 9	    1.10000	    0.90000;
	13	 1	 -22.74	 -8.32	 0.0	 6.5	 0	    1.00000	    0.00000	 220.0	 6	    1.10000	    0.90000;
	14	 1	 14.58	 14.80	 0.0	 132.435168	 0	    1.00000	    0.00000	 380.0	 9	    1.30000	    0.70000;
	15	 1	 64.44	 26.70	 0.0	 12.84	 0	    1.00000	    0.00000	 220.0	 4	    1.10000	    0.90000;
	16	 1	 33.05	 4.30	 0.0	 5.15	 0	    1.00000	    0.00000	 154.0	 1	    1.10000	    0.90000;
	17	 1	 73.09	 12.10	 0.0	 2.18	 0	    1.00000	    0.00000	 220.0	 3	    1.10000	    0.90000;
	18	 2	 0.0	 0.0	 0.0	 0.0	 0	    1.00000	    0.00000	 380.0	 3	    1.10000	    0.90000;
	19	 1	 27.35	 7.50	 0.0	 2.39	 0	    1.00000	    0.00000	 110.0	 12	    1.10000	    0.90000;
	20	 1	 1.51	 0.20	 0.0	 4.93	 0	    1.00000	    0.00000	 154.0	 1	    1.10000	    0.90000;
	21	 1	 174.08	 39.30	 0.0	 30.71	 0	    1.00000	    0.00000	 220.0	 5	    1.10000	    0.90000;
	22	 1	 0.0	 -0.0	 0.0	 0.85	 0	    1.00000	    0.00000	 220.0	 5	    1.10000	    0.90000;
	23	 1	 21.19	 7.10	 0.0	 1.15	 0	    1.00000	    0.00000	 110.0	 19	    1.10000	    0.90000;
	24	 1	 18.60	 5.70	 0.0	 1.22	 0	    1.00000	    0.00000	 110.0	 21	    1.10000	    0.90000;
	25	 2	 0.0	 0.0	 0.0	 0.0	 0	    1.00000	    0.00000	 220.0	 3	    1.10000	    0.90000;
	26	 1	 180.67	 54.80	 0.0	 110.54	 0	    1.00000	    0.00000	 380.0	 5	    1.10000	    0.90000;
	27	 1	 -0.0	 -0.0	 0.0	 14.82	 0	    1.00000	    0.00000	 380.0	 13	    1.10000	    0.90000;
	28	 1	 0.0	 0.0	 0.0	 0.0	 0	    1.00000	    0.00000	 150.0	 9	    1.10000	    0.90000;
	29	 1	 165.12	 49.40	 0.0	 27.65	 0	    1.00000	    0.00000	 380.0	 5	    1.10000	    0.90000;
	30	 1	 -0.0	 0.0	 0.0	 0.56	 0	    1.00000	    0.00000	 150.0	 9	    1.10000	    0.90000;
	31	 1	 75.25	 43.20	 0.0	 6.3	 0	    1.00000	    0.00000	 150.0	 9	    1.30000	    0.70000;
	32	 2	 0.0	 0.0	 0.0	 0.0	 0	    1.00000	    0.00000	 220.0	 4	    1.10000	    0.90000;
	33	 2	 0.0	 0.0	 0.0	 0.0	 0	    1.00000	    0.00000	 220.0	 4	    1.10000	    0.90000;
	34	 1	 14.60	 4.90	 0.0	 1.8	 0	    1.00000	    0.00000	 110.0	 19	    1.10000	    0.90000;
	35	 1	 11.35	 3.50	 0.0	 0.31	 0	    1.00000	    0.00000	 110.0	 12	    1.10000	    0.90000;
	36	 1	 -0.0	 -0.0	 0.12	 15.34	 0	    1.00000	    0.00000	 220.0	 19	    1.10000	    0.90000;
	37	 1	 9.95	 2.60	 0.0	 2.0	 0	    1.00000	    0.00000	 110.0	 18	    1.10000	    0.90000;
	38	 1	 46.17	 12.80	 0.0	 13.3	 0	    1.00000	    0.00000	 220.0	 8	    1.10000	    0.90000;
	39	 2	 0.0	 0.0	 0.0	 0.0	 0	    1.00000	    0.00000	 150.0	 10	    1.10000	    0.90000;
	40	 1	 17.30	 4.54	 0.0	 0.1	 0	    1.00000	    0.00000	 110.0	 23	    1.10000	    0.90000;
	41	 1	 30.13	 4.00	 0.0	 4.23	 0	    1.00000	    0.00000	 154.0	 1	    1.10000	    0.90000;
	42	 1	 22.48	 7.90	 0.0	 26.89	 0	    1.00000	    0.00000	 380.0	 4	    1.10000	    0.90000;
	43	 1	 13.61	 1.80	 0.0	 2.03	 0	    1.00000	    0.00000	 154.0	 1	    1.10000	    0.90000;
	44	 1	 -0.0	 0.0	 0.0	 7.27	 0	    1.00000	    0.00000	 220.0	 5	    1.10000	    0.90000;
	45	 1	 10.92	 3.70	 0.0	 0.81	 0	    1.00000	    0.00000	 110.0	 19	    1.10000	    0.90000;
	46	 1	 10.81	 2.70	 0.0	 1.14	 0	    1.00000	    0.00000	 110.0	 18	    1.10000	    0.90000;
	47	 1	 6.31	 0.00	 0.0	 0.67	 0	    1.00000	    0.00000	 110.0	 18	    1.10000	    0.90000;
	48	 1	 3.13	 0.90	 0.0	 0.6	 0	    1.00000	    0.00000	 110.0	 15	    1.10000	    0.90000;
	49	 2	 0.0	 0.0	 0.0	 0.0	 0	    1.00000	    0.00000	 220.0	 6	    1.10000	    0.90000;
	50	 1	 52.70	 6.90	 0.0	 8.71	 0	    1.00000	    0.00000	 154.0	 1	    1.10000	    0.90000;
	51	 2	 0.0	 0.0	 0.0	 0.0	 0	    1.00000	    0.00000	 220.0	 4	    1.10000	    0.90000;
	52	 1	 137.80	 31.80	 0.0	 20.51	 0	    1.00000	    0.00000	 150.0	 8	    1.10000	    0.90000;
	53	 1	 52.54	 16.10	 0.0	 7.14	 0	    1.00000	    0.00000	 220.0	 5	    1.10000	    0.90000;
	54	 1	 110.50	 -26.80	 0.0	 16.37	 0	    1.00000	    0.00000	 220.0	 6	    1.10000	    0.90000;
	55	 1	 0.0	 -0.0	 0.0	 1.23	 0	    1.00000	    0.00000	 220.0	 3	    1.10000	    0.90000;
	56	 1	 151.19	 79.70	 0.0	 6.5	 0	    1.00000	    0.00000	 220.0	 3	    1.10000	    0.90000;
	57	 1	 23.33	 3.00	 0.0	 3.54	 0	    1.00000	    0.00000	 154.0	 1	    1.10000	    0.90000;
	58	 1	 0.0	 0.0	 0.0	 2.31	 0	    1.00000	    0.00000	 380.0	 5	    1.10000	    0.90000;
	59	 1	 128.73	 20.70	 0.0	 3.31	 0	    1.00000	    0.00000	 220.0	 5	    1.10000	    0.90000;
	60	 1	 0.24	 -1.66	 0.0	 0.65	 0	    1.00000	    0.00000	 110.0	 18	    1.10000	    0.90000;
	61	 1	 -0.0	 0.0	 0.0	 58.57	 0	    1.00000	    0.00000	 380.0	 3	    1.10000	    0.90000;
	62	 1	 -0.0	 0.0	 0.0	 1.34	 0	    1.00000	    0.00000	 110.0	 18	    1.10000	    0.90000;
	63	 1	 202.92	 110.20	 0.0	 21.25	 0	    1.00000	    0.00000	 380.0	 3	    1.10000	    0.90000;
	64	 1	 16.11	 5.50	 0.0	 1.31	 0	    1.00000	    0.00000	 110.0	 15	    1.10000	    0.90000;
	65	 1	 -18.52	 6.10	 0.0	 0.79	 0	    1.00000	    0.00000	 150.0	 9	    1.10000	    0.90000;
	66	 1	 4.98	 1.70	 0.0	 2.32	 0	    1.00000	    0.00000	 110.0	 19	    1.10000	    0.90000;
	67	 1	 0.0	 0.0	 0.099501	 82.133595	 0	    1.00000	    0.00000	 380.0	 18	    1.10000	    0.90000;
	68	 1	 11.67	 5.10	 0.0	 1.09	 0	    1.00000	    0.00000	 110.0	 18	    1.10000	    0.90000;
	69	 1	 67.90	 20.50	 0.0	 1.15	 0	    1.00000	    0.00000	 150.0	 8	    1.10000	    0.90000;
	70	 1	 0.0	 0.0	 0.0	 2.64	 0	    1.00000	    0.00000	 154.0	 1	    1.10000	    0.90000;
	71	 1	 136.40	 42.40	 0.0	 55.24	 0	    1.00000	    0.00000	 150.0	 8	    1.10000	    0.90000;
	72	 1	 6.91	 -4.60	 0.0	 5.75	 0	    1.00000	    0.00000	 220.0	 4	    1.10000	    0.90000;
	73	 1	 16.98	 5.20	 0.0	 0.11	 0	    1.00000	    0.00000	 110.0	 12	    1.10000	    0.90000;
	74	 1	 0.0	 0.0	 0.0	 0.0	 0	    1.00000	    0.00000	 150.0	 9	    1.10000	    0.90000;
	75	 1	 41.84	 6.10	 0.0	 1.17	 0	    1.00000	    0.00000	 220.0	 4	    1.10000	    0.90000;
	76	 1	 23.90	 10.70	 0.0	 14.21	 0	    1.00000	    0.00000	 220.0	 8	    1.10000	    0.90000;
	77	 1	 -0.0	 -0.0	 0.0	 0.73	 0	    1.00000	    0.00000	 220.0	 4	    1.10000	    0.90000;
	78	 1	 0.0	 -0.0	 0.0	 0.83	 0	    1.00000	    0.00000	 110.0	 18	    1.10000	    0.90000;
	79	 1	 149.89	 136.70	 0.0	 8.76	 0	    1.00000	    0.00000	 380.0	 3	    1.10000	    0.90000;
	80	 2	 0.0	 0.0	 0.0	 0.0	 0	    1.00000	    0.00000	 220.0	 23	    1.10000	    0.90000;
	81	 1	 73.18	 19.18	 0.0	 1.47	 0	    1.00000	    0.00000	 150.0	 1	    1.10000	    0.90000;
	82	 1	 23.78	 5.10	 0.0	 0.69	 0	    1.00000	    0.00000	 110.0	 1	    1.10000	    0.90000;
	83	 1	 0.0	 0.0	 0.0	 6.62	 0	    1.00000	    0.00000	 220.0	 3	    1.10000	    0.90000;
	84	 1	 1.08	 0.30	 0.0	 0.19	 0	    1.00000	    0.00000	 110.0	 19	    1.10000	    0.90000;
	85	 1	 22.57	 3.00	 0.0	 5.74	 0	    1.00000	    0.00000	 154.0	 1	    1.10000	    0.90000;
	86	 1	 0.0	 0.0	 0.0	 0.12	 0	    1.00000	    0.00000	 150.0	 9	    1.10000	    0.90000;
	87	 1	 23.24	 5.10	 0.0	 0.5	 0	    1.00000	    0.00000	 110.0	 18	    1.10000	    0.90000;
	88	 1	 77.73	 28.80	 0.0	 11.0	 0	    1.00000	    0.00000	 220.0	 6	    1.10000	    0.90000;
	89	 1	 0.0	 0.0	 0.199111	 4.530599	 0	    1.00000	    0.00000	 380.0	 2	    1.10000	    0.90000;
	90	 1	 392.29	 115.39	 0.0	 3.95	 0	    1.00000	    0.00000	 220.0	 5	    1.10000	    0.90000;
	91	 1	 -0.0	 0.0	 0.0	 0.02	 0	    1.00000	    0.00000	 150.0	 8	    1.10000	    0.90000;
	92	 1	 208.32	 73.30	 0.0	 20.75	 0	    1.00000	    0.00000	 380.0	 3	    1.10000	    0.90000;
	93	 1	 18.92	 6.30	 0.0	 0.26	 0	    1.00000	    0.00000	 110.0	 19	    1.10000	    0.90000;
	94	 1	 35.79	 12.00	 0.0	 0.65	 0	    1.00000	    0.00000	 110.0	 19	    1.10000	    0.90000;
	95	 1	 43.68	 25.00	 0.0	 9.82	 0	    1.00000	    0.00000	 150.0	 9	    1.10000	    0.90000;
	96	 1	 208.61	 53.37	 0.0	 4.58	 0	    1.00000	    0.00000	 220.0	 5	    1.10000	    0.90000;
	97	 1	 0.0	 0.0	 0.0	 9.38	 0	    1.00000	    0.00000	 380.0	 1	    1.10000	    0.90000;
	98	 1	 97.95	 25.50	 0.0	 3.11	 0	    1.00000	    0.00000	 220.0	 3	    1.10000	    0.90000;
	99	 1	 176.30	 -58.90	 0.0	 24.77	 0	    1.00000	    0.00000	 380.0	 6	    1.10000	    0.90000;
	100	 1	 38.81	 22.30	 0.0	 0.0	 0	    1.00000	    0.00000	 150.0	 9	    1.10000	    0.90000;
	101	 1	 -0.0	 0.0	 0.0	 0.29	 0	    1.00000	    0.00000	 150.0	 9	    1.10000	    0.90000;
	102	 1	 0.0	 -0.0	 0.0	 3.77	 0	    1.00000	    0.00000	 220.0	 6	    1.10000	    0.90000;
	103	 1	 70.27	 40.30	 0.0	 5.43	 0	    1.00000	    0.00000	 150.0	 9	    1.10000	    0.90000;
	104	 1	 51.36	 -8.80	 0.0	 2.15	 0	    1.00000	    0.00000	 220.0	 6	    1.10000	    0.90000;
	105	 1	 -0.0	 -0.0	 0.0	 82.55	 0	    1.00000	    0.00000	 380.0	 6	    1.10000	    0.90000;
	106	 1	 0.0	 -0.0	 0.0	 31.19	 0	    1.00000	    0.00000	 380.0	 23	    1.30000	    0.70000;
	107	 2	 0.0	 0.0	 0.0	 0.0	 0	    1.00000	    0.00000	 380.0	 3	    1.30000	    0.70000;
	108	 1	 4.10	 1.30	 0.0	 0.4	 0	    1.00000	    0.00000	 110.0	 18	    1.10000	    0.90000;
	109	 1	 147.95	 19.50	 0.0	 4.9	 0	    1.00000	    0.00000	 154.0	 1	    1.10000	    0.90000;
	110	 1	 0.0	 0.0	 0.0	 0.0	 0	    1.00000	    0.00000	 150.0	 9	    1.10000	    0.90000;
	111	 1	 65.95	 36.00	 0.0	 3.09	 0	    1.00000	    0.00000	 220.0	 11	    1.10000	    0.90000;
	112	 1	 0.0	 0.0	 0.0	 3.24	 0	    1.00000	    0.00000	 220.0	 3	    1.10000	    0.90000;
	113	 1	 -0.0	 -0.0	 0.0	 6.532711	 0	    1.00000	    0.00000	 380.0	 5	    1.10000	    0.90000;
	114	 1	 60.15	 7.90	 0.0	 4.21	 0	    1.00000	    0.00000	 154.0	 1	    1.10000	    0.90000;
	115	 1	 0.0	 -0.0	 0.0	 4.21	 0	    1.00000	    0.00000	 220.0	 5	    1.10000	    0.90000;
	116	 1	 1.94	 0.70	 0.0	 0.3	 0	    1.00000	    0.00000	 110.0	 19	    1.10000	    0.90000;
	117	 1	 43.24	 16.00	 0.0	 0.52	 0	    1.00000	    0.00000	 110.0	 18	    1.10000	    0.90000;
	118	 1	 -0.0	 0.0	 0.0	 36.562834	 0	    1.00000	    0.00000	 380.0	 5	    1.10000	    0.90000;
	119	 1	 0.0	 0.0	 0.0	 0.09	 0	    1.00000	    0.00000	 150.0	 9	    1.10000	    0.90000;
	120	 1	 151.84	 20.10	 0.0	 13.81	 0	    1.00000	    0.00000	 154.0	 1	    1.10000	    0.90000;
	121	 1	 48.76	 14.10	 0.0	 0.19	 0	    1.00000	    0.00000	 110.0	 15	    1.10000	    0.90000;
	122	 1	 -0.0	 0.0	 0.0	 5.75	 0	    1.00000	    0.00000	 220.0	 3	    1.10000	    0.90000;
	123	 2	 0.0	 0.0	 0.0	 0.0	 0	    1.00000	    0.00000	 220.0	 11	    1.10000	    0.90000;
	124	 2	 0.0	 0.0	 0.0	 0.0	 0	    1.00000	    0.00000	 220.0	 5	    1.10000	    0.90000;
	125	 1	 3.69	 2.68	 0.0	 1.46	 0	    1.00000	    0.00000	 110.0	 18	    1.10000	    0.90000;
	126	 1	 0.0	 -0.0	 0.0	 2.64	 0	    1.00000	    0.00000	 154.0	 1	    1.10000	    0.90000;
	127	 1	 -0.0	 -0.0	 0.0	 4.3	 0	    1.00000	    0.00000	 220.0	 6	    1.10000	    0.90000;
	128	 1	 25.63	 12.70	 0.0	 0.52	 0	    1.00000	    0.00000	 220.0	 5	    1.10000	    0.90000;
	129	 1	 131.64	 7.40	 0.0	 1.34	 0	    1.00000	    0.00000	 220.0	 3	    1.10000	    0.90000;
	130	 1	 -0.0	 0.0	 0.135375	 47.750675	 0	    1.00000	    0.00000	 380.0	 10	    1.10000	    0.90000;
	131	 1	 51.13	 16.40	 0.0	 4.08	 0	    1.00000	    0.00000	 110.0	 22	    1.10000	    0.90000;
	132	 1	 0.0	 -0.0	 0.0	 21.39	 0	    1.00000	    0.00000	 380.0	 1	    1.10000	    0.90000;
	133	 1	 41.19	 12.50	 0.0	 6.28	 0	    1.00000	    0.00000	 150.0	 8	    1.10000	    0.90000;
	134	 1	 58.53	 7.80	 0.0	 94.9	 0	    1.00000	    0.00000	 400.0	 1	    1.10000	    0.90000;
	135	 1	 141.04	 84.90	 0.0	 4.22	 0	    1.00000	    0.00000	 220.0	 7	    1.10000	    0.90000;
	136	 1	 8.54	 2.60	 0.0	 0.74	 0	    1.00000	    0.00000	 110.0	 12	    1.10000	    0.90000;
	137	 1	 45.47	 74.61	 0.0	 37.58	 0	    1.00000	    0.00000	 150.0	 1	    1.10000	    0.90000;
	138	 1	 -75.38	 7.80	 0.0	 29.9	 0	    1.00000	    0.00000	 380.0	 10	    1.10000	    0.90000;
	139	 1	 -0.0	 -0.0	 0.0	 36.92	 0	    1.00000	    0.00000	 380.0	 8	    1.10000	    0.90000;
	140	 1	 0.0	 0.0	 0.0	 4.14	 0	    1.00000	    0.00000	 220.0	 8	    1.10000	    0.90000;
	141	 2	 0.0	 0.0	 0.0	 0.0	 0	    1.00000	    0.00000	 220.0	 13	    1.10000	    0.90000;
	142	 2	 0.0	 0.0	 0.0	 0.0	 0	    1.00000	    0.00000	 220.0	 6	    1.10000	    0.90000;
	143	 1	 0.0	 0.0	 0.0	 0.0	 0	    1.00000	    0.00000	 150.0	 8	    1.10000	    0.90000;
	144	 1	 0.0	 0.0	 0.0	 98.53	 0	    1.00000	    0.00000	 380.0	 14	    1.10000	    0.90000;
	145	 1	 41.40	 5.60	 0.0	 7.64	 0	    1.00000	    0.00000	 220.0	 5	    1.10000	    0.90000;
	146	 1	 291.15	 65.70	 0.0	 0.0	 0	    1.00000	    0.00000	 120.0	 20	    1.30000	    0.70000;
	147	 2	 0.0	 0.0	 0.0	 0.0	 0	    1.00000	    0.00000	 220.0	 7	    1.10000	    0.90000;
	148	 1	 34.92	 12.00	 0.0	 6.1	 0	    1.00000	    0.00000	 220.0	 5	    1.10000	    0.90000;
	149	 1	 108.10	 45.10	 0.0	 1.11	 0	    1.00000	    0.00000	 380.0	 6	    1.10000	    0.90000;
	150	 2	 0.0	 0.0	 0.0	 0.0	 0	    1.00000	    0.00000	 220.0	 5	    1.10000	    0.90000;
	151	 2	 0.0	 0.0	 0.0	 0.0	 0	    1.00000	    0.00000	 154.0	 1	    1.10000	    0.90000;
	152	 1	 7.56	 1.00	 0.0	 4.69	 0	    1.00000	    0.00000	 154.0	 1	    1.10000	    0.90000;
	153	 1	 -0.0	 0.0	 0.0	 0.56	 0	    1.00000	    0.00000	 150.0	 7	    1.10000	    0.90000;
	154	 1	 0.0	 0.0	 0.0	 1.29	 0	    1.00000	    0.00000	 110.0	 12	    1.10000	    0.90000;
	155	 1	 -0.0	 -0.0	 0.0	 1.7	 0	    1.00000	    0.00000	 110.0	 21	    1.10000	    0.90000;
	156	 1	 43.56	 25.00	 0.0	 1.14	 0	    1.00000	    0.00000	 150.0	 9	    1.10000	    0.90000;
	157	 1	 9.95	 3.30	 0.0	 1.2	 0	    1.00000	    0.00000	 110.0	 19	    1.10000	    0.90000;
	158	 1	 179.27	 60.30	 0.0	 0.57	 0	    1.00000	    0.00000	 220.0	 3	    1.10000	    0.90000;
	159	 1	 0.0	 -0.0	 0.0	 0.1	 0	    1.00000	    0.00000	 150.0	 9	    1.10000	    0.90000;
	160	 1	 85.75	 11.30	 0.0	 4.92	 0	    1.00000	    0.00000	 154.0	 1	    1.10000	    0.90000;
	161	 1	 -0.0	 -0.0	 0.0	 0.16	 0	    1.00000	    0.00000	 150.0	 9	    1.10000	    0.90000;
	162	 1	 0.0	 0.0	 0.0	 66.65	 0	    1.00000	    0.00000	 380.0	 6	    1.10000	    0.90000;
	163	 1	 159.57	 32.73	 0.0	 8.34	 0	    1.00000	    0.00000	 220.0	 5	    1.10000	    0.90000;
	164	 1	 0.0	 -0.0	 0.0	 5.17	 0	    1.00000	    0.00000	 150.0	 8	    1.10000	    0.90000;
	165	 1	 26.80	 -3.70	 0.0	 51.261678	 0	    1.00000	    0.00000	 380.0	 9	    1.10000	    0.90000;
	166	 2	 0.0	 0.0	 0.0	 0.0	 0	    1.00000	    0.00000	 220.0	 3	    1.10000	    0.90000;
	167	 1	 278.08	 131.10	 0.0	 1.08	 0	    1.00000	    0.00000	 220.0	 3	    1.10000	    0.90000;
	168	 1	 18.03	 2.40	 0.0	 6.09	 0	    1.00000	    0.00000	 154.0	 1	    1.10000	    0.90000;
	169	 1	 0.0	 0.0	 0.0	 1.91	 0	    1.00000	    0.00000	 150.0	 9	    1.10000	    0.90000;
	170	 1	 -0.0	 -0.0	 0.0	 2.35	 0	    1.00000	    0.00000	 220.0	 1	    1.10000	    0.90000;
	171	 1	 108.86	 13.20	 0.0	 5.24	 0	    1.00000	    0.00000	 220.0	 5	    1.10000	    0.90000;
	172	 1	 120.63	 10.96	 0.0	 4.22	 0	    1.00000	    0.00000	 220.0	 4	    1.10000	    0.90000;
	173	 1	 90.38	 -5.05	 0.0	 8.49	 0	    1.00000	    0.00000	 220.0	 13	    1.10000	    0.90000;
	174	 1	 370.50	 -17.00	 0.0	 9.91	 0	    1.00000	    0.00000	 220.0	 5	    1.10000	    0.90000;
	175	 1	 10.70	 3.20	 0.0	 0.67	 0	    1.00000	    0.00000	 110.0	 12	    1.10000	    0.90000;
	176	 1	 -0.69	 -5.46	 0.0	 5.07	 0	    1.00000	    0.00000	 150.0	 9	    1.10000	    0.90000;
	177	 1	 102.49	 36.20	 0.0	 16.46	 0	    1.00000	    0.00000	 220.0	 10	    1.10000	    0.90000;
	178	 1	 87.57	 48.00	 0.0	 0.03	 0	    1.00000	    0.00000	 150.0	 9	    1.10000	    0.90000;
	179	 2	 0.0	 0.0	 0.0	 0.0	 0	    1.00000	    0.00000	 380.0	 4	    1.10000	    0.90000;
	180	 1	 0.0	 0.0	 0.0	 0.54	 0	    1.00000	    0.00000	 110.0	 21	    1.10000	    0.90000;
	181	 1	 59.35	 16.90	 0.0	 3.37	 0	    1.00000	    0.00000	 110.0	 22	    1.10000	    0.90000;
	182	 1	 20.86	 26.00	 0.0	 0.69	 0	    1.00000	    0.00000	 220.0	 3	    1.10000	    0.90000;
	183	 1	 0.0	 0.0	 0.0	 1.83	 0	    1.00000	    0.00000	 150.0	 9	    1.10000	    0.90000;
	184	 1	 -0.0	 -0.0	 0.0	 2.42	 0	    1.00000	    0.00000	 220.0	 5	    1.10000	    0.90000;
	185	 1	 22.57	 3.00	 0.0	 4.11	 0	    1.00000	    0.00000	 154.0	 1	    1.10000	    0.90000;
	186	 1	 21.51	 6.60	 0.0	 0.56	 0	    1.00000	    0.00000	 110.0	 21	    1.10000	    0.90000;
	187	 1	 61.73	 2.00	 0.0	 1.48	 0	    1.00000	    0.00000	 110.0	 22	    1.10000	    0.90000;
	188	 1	 39.78	 13.90	 0.0	 3.3	 0	    1.00000	    0.00000	 220.0	 5	    1.10000	    0.90000;
	189	 1	 -15.04	 -5.12	 0.0	 0.43	 0	    1.00000	    0.00000	 110.0	 18	    1.10000	    0.90000;
	190	 2	 0.0	 0.0	 0.0	 0.0	 0	    1.00000	    0.00000	 110.0	 19	    1.10000	    0.90000;
	191	 1	 0.0	 -0.0	 0.0	 14.19	 0	    1.00000	    0.00000	 220.0	 6	    1.10000	    0.90000;
	192	 2	 0.0	 0.0	 0.0	 0.0	 0	    1.00000	    0.00000	 380.0	 3	    1.10000	    0.90000;
	193	 1	 129.48	 3.70	 0.0	 3.33	 0	    1.00000	    0.00000	 220.0	 3	    1.10000	    0.90000;
	194	 2	 0.0	 0.0	 0.0	 0.0	 0	    1.00000	    0.00000	 150.0	 8	    1.10000	    0.90000;
	195	 1	 78.99	 21.55	 0.0	 8.52	 0	    1.00000	    0.00000	 220.0	 5	    1.10000	    0.90000;
	196	 1	 0.0	 -0.0	 0.0	 12.48	 0	    1.00000	    0.00000	 220.0	 5	    1.10000	    0.90000;
	197	 2	 0.0	 0.0	 0.0	 0.0	 0	    1.00000	    0.00000	 380.0	 3	    1.10000	    0.90000;
	198	 1	 42.92	 11.80	 0.0	 1.44	 0	    1.00000	    0.00000	 220.0	 5	    1.10000	    0.90000;
	199	 1	 93.74	 28.40	 0.0	 1.34	 0	    1.00000	    0.00000	 150.0	 8	    1.10000	    0.90000;
	200	 1	 24.21	 2.10	 0.0	 0.19	 0	    1.00000	    0.00000	 150.0	 1	    1.10000	    0.90000;
...
];

%% generator data
%	bus	Pg	Qg	Qmax	Qmin	Vg	mBase	status	Pmax	Pmin
mpc.gen = [
	2	 52.235	 0.0	 610.8	 -610.8	 1.0	 100.0	 1	 213	 -108.53; % COW
	6	 996.0	 0.0	 964.8	 -964.8	 1.0	 100.0	 1	 1792	 200.0; % COW
	8	 95.5	 2.74	 251.73	 -246.25	 1.0	 100.0	 1	 191	 0.0; % NG
	18	 283.1675	 0.0	 242.0	 -242.0	 1.0	 100.0	 1	 483	 83.335; % NG
	25	 111.5	 33.715	 179.43	 -112.0	 1.0	 100.0	 1	 223	 0.0; % NG
	32	 123.5	 0.0	 256.8	 -256.8	 1.0	 100.0	 1	 247	 0.0; % NG
	33	 131.0	 0.0	 2686.8	 -2686.8	 1.0	 100.0	 1	 262	 0.0; % NG
	39	 160.5	 0.0	 161.0	 -161.0	 1.0	 100.0	 1	 321	 0.0; % NG
	49	 218.0	 0.26	 218.52	 -218.0	 1.0	 100.0	 1	 436	 0.0; % NG
	51	 -96.335	 0.0	 37.2	 -37.2	 1.0	 100.0	 1	 0	 -192.67; % SYNC
	80	 216.7	 0.0	 210.0	 -210.0	 1.0	 100.0	 1	 419	 14.4; % NG
	107	 260.5	 0.0	 392.4	 -392.4	 1.0	 100.0	 1	 421	 100.0; % COW
	123	 105.0	 0.0	 105.0	 -105.0	 1.0	 100.0	 1	 210	 0.0; % NG
	124	 586.3325	 0.0	 503.0	 -503.0	 1.0	 100.0	 1	 1006	 166.665; % NUC
	141	 -48.8	 0.0	 99637.2	 -99637.2	 1.0	 100.0	 1	 0	 -97.6; % SYNC
	142	 114.0	 0.0	 259.2	 -259.2	 1.0	 100.0	 1	 228	 0.0; % NG
	147	 44.335	 7.56	 70.12	 -55.0	 1.0	 100.0	 1	 110	 -21.33; % NG
	150	 117.0	 0.0	 882.0	 -882.0	 1.0	 100.0	 1	 234	 0.0; % COW
	151	 -46.565	 0.0	 264.0	 -264.0	 1.0	 100.0	 1	 54	 -147.13; % NG
	166	 201.5	 0.0	 202.0	 -202.0	 1.0	 100.0	 1	 403	 0.0; % NG
	179	 -84.965	 0.0	 171.6	 -171.6	 1.0	 100.0	 1	 69	 -238.93; % NG
	190	 183.5	 0.0	 184.0	 -184.0	 1.0	 100.0	 1	 367	 0.0; % NG
	192	 48.0	 21.805	 91.61	 -48.0	 1.0	 100.0	 1	 96	 0.0; % NG
	194	 168.0	 0.0	 143.0	 -143.0	 1.0	 100.0	 1	 286	 50.0; % NG
	197	 57.5	 32.175	 123.89	 -59.54	 1.0	 100.0	 1	 115	 0.0; % NG
	201	 72.5	 0.0	 73.0	 -73.0	 1.0	 100.0	 1	 145	 0.0; % NG
	209	 183.5	 0.0	 184.0	 -184.0	 1.0	 100.0	 1	 367	 0.0; % NG
	214	 -116.8	 69.555	 192.0	 -52.89	 1.0	 100.0	 1	 0	 -233.6; % SYNC
	219	 584.1675	 259.715	 937.43	 -418.0	 1.0	 100.0	 1	 835	 333.335; % COW
	220	 393.5	 41.96	 402.92	 -319.0	 1.0	 100.0	 1	 637	 150.0; % COW
	221	 342.3325	 0.0	 309.0	 -309.0	 1.0	 100.0	 1	 618	 66.665; % COW
	222	 -98.2	 0.0	 170.4	 -170.4	 1.0	 100.0	 1	 0	 -196.4; % SYNC
	239	 90.3	 0.0	 95.0	 -95.0	 1.0	 100.0	 1	 190	 -9.4; % NG
	246	 294.6675	 75.04	 378.08	 -228.0	 1.0	 100.0	 1	 456	 133.335; % COW
	248	 -114.665	 0.0	 232.8	 -232.8	 1.0	 100.0	 1	 0	 -229.33; % SYNC
	255	 261.1675	 0.33	 220.66	 -220.0	 1.0	 100.0	 1	 439	 83.335; % NG
	262	 -76.935	 13.19	 38.1	 -11.72	 1.0	 100.0	 1	 0	 -153.87; % SYNC
	263	 94.565	 0.0	 118.0	 -118.0	 1.0	 100.0	 1	 235	 -45.87; % NG
	278	 -42.735	 0.0	 202.8	 -202.8	 1.0	 100.0	 1	 0	 -85.47; % SYNC
	282	 563.1675	 263.82	 924.64	 -397.0	 1.0	 100.0	 1	 793	 333.335; % COW
	289	 34.0	 0.0	 34.0	 -34.0	 1.0	 100.0	 1	 68	 0.0; % PEL
	294	 213.0	 0.0	 173.0	 -173.0	 1.0	 100.0	 1	 346	 80.0; % COW
	299	 551.8325	 151.125	 721.25	 -419.0	 1.0	 100.0	 1	 837	 266.665; % NG
	309	 246.0	 0.0	 246.0	 -246.0	 1.0	 100.0	 1	 492	 0.0; % NG
	310	 675.0	 0.0	 99999.0	 -99999.0	 1.0	 100.0	 1	 1250	 100.0; % COW
	313	 93.0	 0.0	 93.0	 -93.0	 1.0	 100.0	 1	 186	 0.0; % NG
	320	 540.5	 -226.98	 390.0	 -843.96	 1.0	 100.0	 1	 779	 302.0; % COW
	324	 57.5	 7.46	 95.32	 -80.4	 1.0	 100.0	 1	 115	 0.0; % NG
	325	 142.235	 0.0	 157.0	 -157.0	 1.0	 100.0	 1	 313	 -28.53; % NG
	328	 -51.935	 30.255	 188.91	 -128.4	 1.0	 100.0	 1	 0	 -103.87; % SYNC
	338	 77.0	 0.0	 77.0	 -77.0	 1.0	 100.0	 1	 154	 0.0; % NG
	347	 87.5	 0.0	 88.0	 -88.0	 1.0	 100.0	 1	 175	 0.0; % PEL
	348	 155.5	 0.0	 156.0	 -156.0	 1.0	 100.0	 1	 311	 0.0; % NG
	352	 957.1675	 67.675	 926.35	 -791.0	 1.0	 100.0	 1	 1581	 333.335; % COW
	361	 195.3325	 12.195	 186.39	 -162.0	 1.0	 100.0	 1	 324	 66.665; % COW
	366	 192.8325	 0.0	 177.0	 -177.0	 1.0	 100.0	 1	 353	 32.665; % NG
	372	 -11.6	 99.325	 282.95	 -84.3	 1.0	 100.0	 1	 50	 -73.2; % NG
	382	 309.0	 0.0	 309.0	 -309.0	 1.0	 100.0	 1	 618	 0.0; % NG
	389	 45.0	 -2.235	 56.73	 -61.2	 1.0	 100.0	 1	 90	 0.0; % PEL
	394	 759.8325	 348.63	 1224.26	 -527.0	 1.0	 100.0	 1	 1053	 466.665; % COW
	406	 87.0	 0.0	 87.0	 -87.0	 1.0	 100.0	 1	 174	 0.0; % PEL
	409	 40.665	 0.0	 82.0	 -82.0	 1.0	 100.0	 1	 164	 -82.67; % NG
	411	 79.0	 0.0	 79.0	 -79.0	 1.0	 100.0	 1	 158	 0.0; % COW
	413	 71.0	 26.56	 124.12	 -71.0	 1.0	 100.0	 1	 142	 0.0; % NG
	423	 71.7	 0.0	 85.0	 -85.0	 1.0	 100.0	 1	 169	 -25.6; % COW
	424	 269.8325	 42.39	 304.38	 -219.6	 1.0	 100.0	 1	 423	 116.665; % COW
	433	 239.1675	 9.59	 217.18	 -198.0	 1.0	 100.0	 1	 395	 83.335; % NG
	434	 114.135	 0.0	 116.0	 -116.0	 1.0	 100.0	 1	 232	 -3.73; % NG
	438	 79.5	 0.0	 8892.0	 -8892.0	 1.0	 100.0	 1	 159	 0.0; % COW
	439	 80.0	 47.58	 175.16	 -80.0	 1.0	 100.0	 1	 160	 0.0; % COW
	440	 32.5	 11.365	 55.73	 -33.0	 1.0	 100.0	 1	 65	 0.0; % NG
	442	 89.1	 0.0	 116.0	 -116.0	 1.0	 100.0	 1	 232	 -53.8; % NG
	447	 32.5	 0.0	 79.2	 -79.2	 1.0	 100.0	 1	 65	 0.0; % NG
	452	 243.635	 0.0	 282.0	 -282.0	 1.0	 100.0	 1	 563	 -75.73; % NG
	453	 142.5	 57.115	 257.23	 -143.0	 1.0	 100.0	 1	 285	 0.0; % NG
	456	 26.78	 0.0	 98.4	 -98.4	 1.0	 100.0	 1	 91	 -37.44; % NG
	484	 121.0	 5.705	 132.41	 -121.0	 1.0	 100.0	 1	 242	 0.0; % NG
	489	 29.4	 0.0	 101.0	 -101.0	 1.0	 100.0	 1	 202	 -143.2; % NG
	491	 57.0	 0.0	 508.8	 -508.8	 1.0	 100.0	 1	 114	 0.0; % NG
	505	 68.5	 0.0	 69.0	 -69.0	 1.0	 100.0	 1	 137	 0.0; % COW
	511	 35.0	 17.79	 94.38	 -58.8	 1.0	 100.0	 1	 70	 0.0; % NG
	515	 268.0	 0.0	 218.0	 -218.0	 1.0	 100.0	 1	 436	 100.0; % COW
	516	 768.0	 0.0	 718.0	 -718.0	 1.0	 100.0	 1	 1436	 100.0; % COW
	518	 -273.535	 24.21	 85.63	 -37.21	 1.0	 100.0	 1	 0	 -547.07; % SYNC
	524	 99.0	 0.0	 99.0	 -99.0	 1.0	 100.0	 1	 198	 0.0; % NG
	541	 120.5	 0.0	 121.0	 -121.0	 1.0	 100.0	 1	 241	 0.0; % NG
	564	 597.055	 0.0	 632.0	 -632.0	 1.0	 100.0	 1	 1263	 -68.89; % NG
	578	 -73.535	 0.0	 114874.8	 -114874.8	 1.0	 100.0	 1	 0	 -147.07; % SYNC
	583	 -180.0	 0.0	 28.8	 -28.8	 1.0	 100.0	 1	 0	 -360.0; % SYNC
	587	 157.8325	 30.28	 185.56	 -125.0	 1.0	 100.0	 1	 249	 66.665; % NG
	590	 95.7825	 135.115	 380.31	 -110.08	 1.0	 100.0	 1	 158	 33.565; % NG
	615	 28.5	 0.0	 770.4	 -770.4	 1.0	 100.0	 1	 57	 0.0; % PEL
	616	 282.0	 0.0	 242.0	 -242.0	 1.0	 100.0	 1	 484	 80.0; % NG
	618	 577.1675	 0.0	 511.0	 -511.0	 1.0	 100.0	 1	 1021	 133.335; % COW
	628	 57.5	 0.0	 159.6	 -159.6	 1.0	 100.0	 1	 115	 0.0; % NG
	636	 100.0	 0.0	 100.0	 -100.0	 1.0	 100.0	 1	 200	 0.0; % NG
	637	 40.0	 0.0	 40.0	 -40.0	 1.0	 100.0	 1	 80	 0.0; % PEL
	639	 473.7	 0.0	 505.0	 -505.0	 1.0	 100.0	 1	 1009	 -61.6; % NG
	642	 482.0	 0.0	 482.0	 -482.0	 1.0	 100.0	 1	 964	 0.0; % COW
	648	 76.0	 0.0	 589.2	 -589.2	 1.0	 100.0	 1	 152	 0.0; % NG
	672	 318.5	 0.0	 319.0	 -319.0	 1.0	 100.0	 1	 637	 0.0; % COW
	682	 107.5	 0.0	 108.0	 -108.0	 1.0	 100.0	 1	 215	 0.0; % COW
	686	 96.57	 0.0	 111.0	 -111.0	 1.0	 100.0	 1	 222	 -28.86; % NG
	692	 130.3325	 42.585	 182.17	 -97.0	 1.0	 100.0	 1	 194	 66.665; % NG
	697	 756.6675	 0.0	 690.0	 -690.0	 1.0	 100.0	 1	 1380	 133.335; % COW
	698	 380.0	 0.0	 355.0	 -355.0	 1.0	 100.0	 1	 710	 50.0; % COW
	709	 117.0	 0.0	 188.4	 -188.4	 1.0	 100.0	 1	 234	 0.0; % PEL
	711	 141.6325	 120.005	 377.01	 -137.0	 1.0	 100.0	 1	 274	 9.265; % COW
	713	 95.0	 0.0	 95.0	 -95.0	 1.0	 100.0	 1	 190	 0.0; % NG
	714	 715.6675	 0.0	 649.0	 -649.0	 1.0	 100.0	 1	 1298	 133.335; % COW
	715	 355.0	 0.0	 325.0	 -325.0	 1.0	 100.0	 1	 649	 61.0; % COW
	727	 425.1675	 10.305	 379.61	 -359.0	 1.0	 100.0	 1	 717	 133.335; % NUC
	728	 43.5	 -0.155	 44.0	 -44.31	 1.0	 100.0	 1	 87	 0.0; % PEL
	735	 123.5	 0.0	 124.0	 -124.0	 1.0	 100.0	 1	 247	 0.0; % COW
	738	 476.15	 0.0	 468.0	 -468.0	 1.0	 100.0	 1	 935	 17.3; % COW
	739	 233.6675	 10.485	 212.97	 -192.0	 1.0	 100.0	 1	 384	 83.335; % PEL
	749	 66.5	 19.345	 105.69	 -67.0	 1.0	 100.0	 1	 133	 0.0; % NG
	751	 290.5	 0.0	 291.0	 -291.0	 1.0	 100.0	 1	 581	 0.0; % NG
	757	 567.5	 0.0	 568.0	 -568.0	 1.0	 100.0	 1	 1135	 0.0; % NG
	763	 92.0	 0.0	 260.4	 -260.4	 1.0	 100.0	 1	 184	 0.0; % NG
	764	 173.3325	 0.0	 98934.0	 -98934.0	 1.0	 100.0	 1	 280	 66.665; % NG
	765	 178.5	 0.0	 179.0	 -179.0	 1.0	 100.0	 1	 357	 0.0; % NG
	774	 58.5	 10.415	 81.57	 -60.74	 1.0	 100.0	 1	 117	 0.0; % COW
	776	 94.235	 0.0	 169.0	 -169.0	 1.0	 100.0	 1	 337	 -148.53; % NG
	778	 51.0	 0.0	 2316.0	 -2316.0	 1.0	 100.0	 1	 102	 0.0; % PEL
	779	 176.5	 0.0	 396.0	 -396.0	 1.0	 100.0	 1	 353	 0.0; % NG
	780	 151.5	 0.0	 13146.0	 -13146.0	 1.0	 100.0	 1	 303	 0.0; % NG
	791	 402.0	 132.815	 567.63	 -302.0	 1.0	 100.0	 1	 604	 200.0; % COW
	795	 120.0	 0.0	 13633.2	 -13633.2	 1.0	 100.0	 1	 240	 0.0; % NG
	796	 210.5	 0.0	 211.0	 -211.0	 1.0	 100.0	 1	 421	 0.0; % NG
	803	 -23.965	 19.015	 74.03	 -36.0	 1.0	 100.0	 1	 71	 -118.93; % COW
	807	 1025.1675	 2.735	 864.47	 -859.0	 1.0	 100.0	 1	 1717	 333.335; % COW
	813	 283.6675	 0.0	 922.8	 -922.8	 1.0	 100.0	 1	 467	 100.335; % NG
	823	 751.6675	 170.84	 926.68	 -585.0	 1.0	 100.0	 1	 1170	 333.335; % COW
	828	 161.5	 0.0	 39159.6	 -39159.6	 1.0	 100.0	 1	 323	 0.0; % NG
	831	 192.0	 0.0	 192.0	 -192.0	 1.0	 100.0	 1	 384	 0.0; % COW
	832	 562.0	 0.0	 512.0	 -512.0	 1.0	 100.0	 1	 1024	 100.0; % COW
	837	 149.0	 0.0	 5888.4	 -5888.4	 1.0	 100.0	 1	 298	 0.0; % PEL
	844	 97.5	 0.0	 98.0	 -98.0	 1.0	 100.0	 1	 195	 0.0; % NG
	848	 44.1725	 2.815	 49.63	 -44.0	 1.0	 100.0	 1	 87	 1.345; % NG
	849	 70.5	 0.0	 253.2	 -253.2	 1.0	 100.0	 1	 141	 0.0; % PEL
	851	 194.5	 0.0	 195.0	 -195.0	 1.0	 100.0	 1	 389	 0.0; % NG
	858	 560.3325	 0.0	 538.8	 -538.8	 1.0	 100.0	 1	 954	 166.665; % COW
	861	 95.5	 0.0	 96.0	 -96.0	 1.0	 100.0	 1	 191	 0.0; % NG
	875	 418.6675	 0.0	 377.0	 -377.0	 1.0	 100.0	 1	 754	 83.335; % COW
	888	 236.0	 0.0	 211.0	 -211.0	 1.0	 100.0	 1	 422	 50.0; % NG
	891	 1322.5	 0.0	 1123.0	 -1123.0	 1.0	 100.0	 1	 2245	 400.0; % COW
	894	 89.5	 25.965	 141.93	 -90.0	 1.0	 100.0	 1	 179	 0.0; % NG
	896	 55.7	 0.0	 58.0	 -58.0	 1.0	 100.0	 1	 115	 -3.6; % NG
	913	 1098.1675	 0.0	 1078.8	 -1078.8	 1.0	 100.0	 1	 1913	 283.335; % COW
	916	 107.0	 13.725	 134.45	 -107.0	 1.0	 100.0	 1	 214	 0.0; % NG
	917	 54.5	 0.0	 55.0	 -55.0	 1.0	 100.0	 1	 109	 0.0; % NG
	926	 487.3325	 0.0	 448.0	 -448.0	 1.0	 100.0	 1	 896	 78.665; % COW
	927	 117.5	 0.0	 118.0	 -118.0	 1.0	 100.0	 1	 235	 0.0; % NG
	930	 509.0	 0.0	 434.0	 -434.0	 1.0	 100.0	 1	 868	 150.0; % COW
	972	 1744.6675	 0.0	 1578.0	 -1578.0	 1.0	 100.0	 1	 3156	 333.335; % COW
	974	 190.5	 0.0	 191.0	 -191.0	 1.0	 100.0	 1	 381	 0.0; % NG
	976	 377.5	 0.0	 378.0	 -378.0	 1.0	 100.0	 1	 755	 0.0; % COW
	978	 103.0	 0.0	 103.0	 -103.0	 1.0	 100.0	 1	 206	 0.0; % NG
	983	 860.1675	 127.18	 948.36	 -694.0	 1.0	 100.0	 1	 1387	 333.335; % COW
	984	 604.3325	 133.965	 738.93	 -471.0	 1.0	 100.0	 1	 942	 266.665; % COW
	991	 126.0	 0.0	 126.0	 -126.0	 1.0	 100.0	 1	 252	 0.0; % NG
	992	 106.0	 0.0	 106.0	 -106.0	 1.0	 100.0	 1	 212	 0.0; % PEL
	993	 -91.265	 0.0	 294.0	 -294.0	 1.0	 100.0	 1	 0	 -182.53; % SYNC
	1001	 903.5	 0.0	 904.0	 -904.0	 1.0	 100.0	 1	 1807	 0.0; % COW
	1002	 460.5	 0.0	 461.0	 -461.0	 1.0	 100.0	 1	 921	 0.0; % NG
	1004	 87.5	 0.0	 88.0	 -88.0	 1.0	 100.0	 1	 175	 0.0; % NG
	1021	 -80.035	 9.17	 58.34	 -40.0	 1.0	 100.0	 1	 79	 -239.07; % NG
	1029	 61.5	 14.32	 90.64	 -62.0	 1.0	 100.0	 1	 123	 0.0; % NG
	1030	 244.0	 0.0	 219.0	 -219.0	 1.0	 100.0	 1	 438	 50.0; % NG
	1036	 234.5	 0.0	 210.0	 -210.0	 1.0	 100.0	 1	 419	 50.0; % NG
	1043	 391.0	 0.0	 75566.4	 -75566.4	 1.0	 100.0	 1	 632	 150.0; % COW
	1050	 230.5125	 2.75	 173.5	 -168.0	 1.0	 100.0	 1	 335	 126.025; % NG
	1082	 236.8325	 0.0	 204.0	 -204.0	 1.0	 100.0	 1	 407	 66.665; % NG
	1083	 101.0	 0.0	 101.0	 -101.0	 1.0	 100.0	 1	 202	 0.0; % NG
	1088	 77.5	 0.0	 78.0	 -78.0	 1.0	 100.0	 1	 155	 0.0; % PEL
	1093	 792.0	 0.0	 14167.2	 -14167.2	 1.0	 100.0	 1	 1384	 200.0; % COW
	1097	 75.0	 0.0	 75.0	 -75.0	 1.0	 100.0	 1	 150	 0.0; % PEL
	1098	 129.1675	 0.0	 254.4	 -254.4	 1.0	 100.0	 1	 225	 33.335; % NG
	1100	 67.0	 0.0	 67.0	 -67.0	 1.0	 100.0	 1	 134	 0.0; % NG
	1102	 -66.27	 -3.775	 38.05	 -45.6	 1.0	 100.0	 1	 33	 -165.54; % NG
	1103	 325.6675	 58.83	 376.66	 -259.0	 1.0	 100.0	 1	 518	 133.335; % COW
	1117	 578.5	 0.0	 507.0	 -507.0	 1.0	 100.0	 1	 1013	 144.0; % COW
	1119	 295.5	 0.0	 271.0	 -271.0	 1.0	 100.0	 1	 541	 50.0; % NG
	1121	 121.5	 2.9	 158.2	 -152.4	 1.0	 100.0	 1	 243	 0.0; % NG
	1122	 51.0	 5.96	 68.0	 -56.08	 1.0	 100.0	 1	 102	 0.0; % NG
	1125	 134.0	 0.0	 134.0	 -134.0	 1.0	 100.0	 1	 268	 0.0; % NG
	1131	 505.0	 0.0	 430.0	 -430.0	 1.0	 100.0	 1	 860	 150.0; % COW
	1138	 409.8325	 52.72	 432.44	 -327.0	 1.0	 100.0	 1	 653	 166.665; % COW
	1139	 317.0	 0.0	 317.0	 -317.0	 1.0	 100.0	 1	 634	 0.0; % NG
	1145	 264.4275	 0.0	 255.0	 -255.0	 1.0	 100.0	 1	 510	 18.855; % NG
	1173	 -83.135	 0.0	 20.4	 -20.4	 1.0	 100.0	 1	 0	 -166.27; % SYNC
	1174	 82.0	 0.0	 82.0	 -82.0	 1.0	 100.0	 1	 164	 0.0; % NG
	1175	 339.0	 0.0	 289.0	 -289.0	 1.0	 100.0	 1	 578	 100.0; % COW
	1176	 162.615	 0.0	 162.0	 -162.0	 1.0	 100.0	 1	 323	 2.23; % NG
	1184	 289.5	 0.0	 388.8	 -388.8	 1.0	 100.0	 1	 579	 0.0; % NG
	1220	 211.5	 0.0	 212.0	 -212.0	 1.0	 100.0	 1	 423	 0.0; % NG
	1225	 194.0	 0.0	 194.0	 -194.0	 1.0	 100.0	 1	 388	 0.0; % COW
	1237	 685.6675	 193.805	 906.61	 -519.0	 1.0	 100.0	 1	 1038	 333.335; % COW
	1241	 92.0	 0.0	 92.0	 -92.0	 1.0	 100.0	 1	 184	 0.0; % NG
...
];

%% generator cost data
%	2	startup	shutdown	n	c(n-1)	...	c0
mpc.gencost = [
	2	 0.0	 0.0	 3	   0.000000	  48.144896	   0.000000; % COW
	2	 0.0	 0.0	 3	   0.000000	  33.752152	   0.000000; % COW
	2	 0.0	 0.0	 3	   0.000000	  18.944562	   0.000000; % NG
	2	 0.0	 0.0	 3	   0.000000	  32.963567	   0.000000; % NG
	2	 0.0	 0.0	 3	   0.000000	  34.582172	   0.000000; % NG
	2	 0.0	 0.0	 3	   0.000000	 102.123377	   0.000000; % NG
	2	 0.0	 0.0	 3	   0.000000	  27.491952	   0.000000; % NG
	2	 0.0	 0.0	 3	   0.000000	 106.121938	   0.000000; % NG
	2	 0.0	 0.0	 3	   0.000000	  42.422147	   0.000000; % NG
	2	 0.0	 0.0	 3	   0.000000	  19.547479	   0.000000; % SYNC
	2	 0.0	 0.0	 3	   0.000000	  19.340722	   0.000000; % NG
	2	 0.0	 0.0	 3	   0.000000	  27.847851	   0.000000; % COW
	2	 0.0	 0.0	 3	   0.000000	  16.555469	   0.000000; % NG
	2	 0.0	 0.0	 3	   0.000000	  25.372493	   0.000000; % NUC
	2	 0.0	 0.0	 3	   0.000000	  26.375422	   0.000000; % SYNC
	2	 0.0	 0.0	 3	   0.000000	  14.224446	   0.000000; % NG
	2	 0.0	 0.0	 3	   0.000000	  41.806983	   0.000000; % NG
	2	 0.0	 0.0	 3	   0.000000	  32.631964	   0.000000; % COW
	2	 0.0	 0.0	 3	   0.000000	  24.120319	   0.000000; % NG
	2	 0.0	 0.0	 3	   0.000000	  20.196291	   0.000000; % NG
	2	 0.0	 0.0	 3	   0.000000	  67.893274	   0.000000; % NG
	2	 0.0	 0.0	 3	   0.000000	  40.690715	   0.000000; % NG
	2	 0.0	 0.0	 3	   0.000000	  24.756254	   0.000000; % NG
	2	 0.0	 0.0	 3	   0.000000	  32.534667	   0.000000; % NG
	2	 0.0	 0.0	 3	   0.000000	  31.107941	   0.000000; % NG
	2	 0.0	 0.0	 3	   0.000000	  36.105459	   0.000000; % NG
	2	 0.0	 0.0	 3	   0.000000	 111.472656	   0.000000; % NG
	2	 0.0	 0.0	 3	   0.000000	  22.223030	   0.000000; % SYNC
	2	 0.0	 0.0	 3	   0.000000	   9.538301	   0.000000; % COW
	2	 0.0	 0.0	 3	   0.000000	  19.957222	   0.000000; % COW
	2	 0.0	 0.0	 3	   0.000000	  19.521714	   0.000000; % COW
	2	 0.0	 0.0	 3	   0.000000	  17.536720	   0.000000; % SYNC
	2	 0.0	 0.0	 3	   0.000000	  50.147209	   0.000000; % NG
	2	 0.0	 0.0	 3	   0.000000	  20.161061	   0.000000; % COW
	2	 0.0	 0.0	 3	   0.000000	  30.649135	   0.000000; % SYNC
	2	 0.0	 0.0	 3	   0.000000	  32.216573	   0.000000; % NG
	2	 0.0	 0.0	 3	   0.000000	   5.143579	   0.000000; % SYNC
	2	 0.0	 0.0	 3	   0.000000	  28.608411	   0.000000; % NG
	2	 0.0	 0.0	 3	   0.000000	  47.435671	   0.000000; % SYNC
	2	 0.0	 0.0	 3	   0.000000	  24.722854	   0.000000; % COW
	2	 0.0	 0.0	 3	   0.000000	 114.458323	   0.000000; % PEL
	2	 0.0	 0.0	 3	   0.000000	  62.457256	   0.000000; % COW
	2	 0.0	 0.0	 3	   0.000000	  23.320554	   0.000000; % NG
	2	 0.0	 0.0	 3	   0.000000	  31.109769	   0.000000; % NG
	2	 0.0	 0.0	 3	   0.000000	  28.715930	   0.000000; % COW
	2	 0.0	 0.0	 3	   0.000000	  34.855361	   0.000000; % NG
	2	 0.0	 0.0	 3	   0.000000	   7.046649	   0.000000; % COW
	2	 0.0	 0.0	 3	   0.000000	  24.293749	   0.000000; % NG
	2	 0.0	 0.0	 3	   0.000000	  23.344146	   0.000000; % NG
	2	 0.0	 0.0	 3	   0.000000	  17.792717	   0.000000; % SYNC
	2	 0.0	 0.0	 3	   0.000000	  26.890752	   0.000000; % NG
	2	 0.0	 0.0	 3	   0.000000	  37.737199	   0.000000; % PEL
	2	 0.0	 0.0	 3	   0.000000	  38.039292	   0.000000; % NG
	2	 0.0	 0.0	 3	   0.000000	  29.726025	   0.000000; % COW
	2	 0.0	 0.0	 3	   0.000000	  41.536201	   0.000000; % COW
	2	 0.0	 0.0	 3	   0.000000	  46.002594	   0.000000; % NG
	2	 0.0	 0.0	 3	   0.000000	  18.286323	   0.000000; % NG
	2	 0.0	 0.0	 3	   0.000000	  41.665073	   0.000000; % NG
	2	 0.0	 0.0	 3	   0.000000	  30.265444	   0.000000; % PEL
	2	 0.0	 0.0	 3	   0.000000	  45.015219	   0.000000; % COW
	2	 0.0	 0.0	 3	   0.000000	  31.330953	   0.000000; % PEL
	2	 0.0	 0.0	 3	   0.000000	  15.386487	   0.000000; % NG
	2	 0.0	 0.0	 3	   0.000000	 101.914927	   0.000000; % COW
	2	 0.0	 0.0	 3	   0.000000	  32.514558	   0.000000; % NG
	2	 0.0	 0.0	 3	   0.000000	  36.294770	   0.000000; % COW
	2	 0.0	 0.0	 3	   0.000000	  24.807489	   0.000000; % COW
	2	 0.0	 0.0	 3	   0.000000	  23.295725	   0.000000; % NG
	2	 0.0	 0.0	 3	   0.000000	  31.589696	   0.000000; % NG
	2	 0.0	 0.0	 3	   0.000000	   9.952051	   0.000000; % COW
	2	 0.0	 0.0	 3	   0.000000	  37.954064	   0.000000; % COW
	2	 0.0	 0.0	 3	   0.000000	  48.191448	   0.000000; % NG
	2	 0.0	 0.0	 3	   0.000000	  37.711424	   0.000000; % NG
	2	 0.0	 0.0	 3	   0.000000	  10.804978	   0.000000; % NG
	2	 0.0	 0.0	 3	   0.000000	  28.033588	   0.000000; % NG
	2	 0.0	 0.0	 3	   0.000000	  27.152413	   0.000000; % NG
	2	 0.0	 0.0	 3	   0.000000	  24.325875	   0.000000; % NG
	2	 0.0	 0.0	 3	   0.000000	  21.823998	   0.000000; % NG
	2	 0.0	 0.0	 3	   0.000000	  40.469758	   0.000000; % NG
	2	 0.0	 0.0	 3	   0.000000	  28.593272	   0.000000; % NG
	2	 0.0	 0.0	 3	   0.000000	  24.551931	   0.000000; % COW
	2	 0.0	 0.0	 3	   0.000000	  26.129224	   0.000000; % NG
	2	 0.0	 0.0	 3	   0.000000	  33.053251	   0.000000; % COW
	2	 0.0	 0.0	 3	   0.000000	  26.278186	   0.000000; % COW
	2	 0.0	 0.0	 3	   0.000000	  40.651028	   0.000000; % SYNC
	2	 0.0	 0.0	 3	   0.000000	  87.617497	   0.000000; % NG
	2	 0.0	 0.0	 3	   0.000000	  44.138695	   0.000000; % NG
	2	 0.0	 0.0	 3	   0.000000	  29.848214	   0.000000; % NG
	2	 0.0	 0.0	 3	   0.000000	  30.733565	   0.000000; % SYNC
	2	 0.0	 0.0	 3	   0.000000	  41.482425	   0.000000; % SYNC
	2	 0.0	 0.0	 3	   0.000000	  55.459703	   0.000000; % NG
	2	 0.0	 0.0	 3	   0.000000	  26.505085	   0.000000; % NG
	2	 0.0	 0.0	 3	   0.000000	  15.670212	   0.000000; % PEL
	2	 0.0	 0.0	 3	   0.000000	  36.975457	   0.000000; % NG
	2	 0.0	 0.0	 3	   0.000000	  15.242647	   0.000000; % COW
	2	 0.0	 0.0	 3	   0.000000	  16.025704	   0.000000; % NG
	2	 0.0	 0.0	 3	   0.000000	  37.556910	   0.000000; % NG
	2	 0.0	 0.0	 3	   0.000000	 117.356072	   0.000000; % PEL
	2	 0.0	 0.0	 3	   0.000000	  26.774912	   0.000000; % NG
	2	 0.0	 0.0	 3	   0.000000	  31.390872	   0.000000; % COW
	2	 0.0	 0.0	 3	   0.000000	  52.037941	   0.000000; % NG
	2	 0.0	 0.0	 3	   0.000000	  44.179903	   0.000000; % COW
	2	 0.0	 0.0	 3	   0.000000	  42.501955	   0.000000; % COW
	2	 0.0	 0.0	 3	   0.000000	  28.316382	   0.000000; % NG
	2	 0.0	 0.0	 3	   0.000000	  34.908855	   0.000000; % NG
	2	 0.0	 0.0	 3	   0.000000	  15.814239	   0.000000; % COW
	2	 0.0	 0.0	 3	   0.000000	  25.496477	   0.000000; % COW
	2	 0.0	 0.0	 3	   0.000000	 104.731813	   0.000000; % PEL
	2	 0.0	 0.0	 3	   0.000000	  20.270435	   0.000000; % COW
	2	 0.0	 0.0	 3	   0.000000	  45.930525	   0.000000; % NG
	2	 0.0	 0.0	 3	   0.000000	   7.378171	   0.000000; % COW
	2	 0.0	 0.0	 3	   0.000000	  20.668034	   0.000000; % COW
	2	 0.0	 0.0	 3	   0.000000	  35.359581	   0.000000; % NUC
	2	 0.0	 0.0	 3	   0.000000	 107.620093	   0.000000; % PEL
	2	 0.0	 0.0	 3	   0.000000	  37.337555	   0.000000; % COW
	2	 0.0	 0.0	 3	   0.000000	  17.315011	   0.000000; % COW
	2	 0.0	 0.0	 3	   0.000000	  16.235620	   0.000000; % PEL
	2	 0.0	 0.0	 3	   0.000000	  30.604601	   0.000000; % NG
	2	 0.0	 0.0	 3	   0.000000	  28.363783	   0.000000; % NG
	2	 0.0	 0.0	 3	   0.000000	  16.000500	   0.000000; % NG
	2	 0.0	 0.0	 3	   0.000000	  20.927762	   0.000000; % NG
	2	 0.0	 0.0	 3	   0.000000	  20.734171	   0.000000; % NG
	2	 0.0	 0.0	 3	   0.000000	  21.919716	   0.000000; % NG
	2	 0.0	 0.0	 3	   0.000000	  28.633061	   0.000000; % COW
	2	 0.0	 0.0	 3	   0.000000	  31.847313	   0.000000; % NG
	2	 0.0	 0.0	 3	   0.000000	  28.689607	   0.000000; % PEL
	2	 0.0	 0.0	 3	   0.000000	  32.095756	   0.000000; % NG
	2	 0.0	 0.0	 3	   0.000000	  12.590748	   0.000000; % NG
	2	 0.0	 0.0	 3	   0.000000	   6.192791	   0.000000; % COW
	2	 0.0	 0.0	 3	   0.000000	  26.395841	   0.000000; % NG
	2	 0.0	 0.0	 3	   0.000000	  39.396239	   0.000000; % NG
	2	 0.0	 0.0	 3	   0.000000	  47.118951	   0.000000; % COW
	2	 0.0	 0.0	 3	   0.000000	   7.607693	   0.000000; % COW
	2	 0.0	 0.0	 3	   0.000000	  20.753305	   0.000000; % NG
	2	 0.0	 0.0	 3	   0.000000	   7.033043	   0.000000; % COW
	2	 0.0	 0.0	 3	   0.000000	  47.432749	   0.000000; % NG
	2	 0.0	 0.0	 3	   0.000000	  43.641911	   0.000000; % COW
	2	 0.0	 0.0	 3	   0.000000	  27.601252	   0.000000; % COW
	2	 0.0	 0.0	 3	   0.000000	 120.258328	   0.000000; % PEL
	2	 0.0	 0.0	 3	   0.000000	  38.083093	   0.000000; % NG
	2	 0.0	 0.0	 3	   0.000000	  16.412766	   0.000000; % NG
	2	 0.0	 0.0	 3	   0.000000	  24.081564	   0.000000; % PEL
	2	 0.0	 0.0	 3	   0.000000	  41.329283	   0.000000; % NG
	2	 0.0	 0.0	 3	   0.000000	  27.329787	   0.000000; % COW
	2	 0.0	 0.0	 3	   0.000000	  14.754364	   0.000000; % NG
	2	 0.0	 0.0	 3	   0.000000	  46.438736	   0.000000; % COW
	2	 0.0	 0.0	 3	   0.000000	  19.898489	   0.000000; % NG
	2	 0.0	 0.0	 3	   0.000000	  43.716118	   0.000000; % COW
	2	 0.0	 0.0	 3	   0.000000	  22.551616	   0.000000; % NG
	2	 0.0	 0.0	 3	   0.000000	  56.079880	   0.000000; % NG
	2	 0.0	 0.0	 3	   0.000000	  32.053825	   0.000000; % COW
	2	 0.0	 0.0	 3	   0.000000	  27.044824	   0.000000; % NG
	2	 0.0	 0.0	 3	   0.000000	  27.509630	   0.000000; % NG
	2	 0.0	 0.0	 3	   0.000000	  22.569503	   0.000000; % COW
	2	 0.0	 0.0	 3	   0.000000	  19.401918	   0.000000; % NG
	2	 0.0	 0.0	 3	   0.000000	  37.494446	   0.000000; % COW
	2	 0.0	 0.0	 3	   0.000000	  19.511724	   0.000000; % COW
	2	 0.0	 0.0	 3	   0.000000	  15.775384	   0.000000; % NG
	2	 0.0	 0.0	 3	   0.000000	  31.825257	   0.000000; % COW
	2	 0.0	 0.0	 3	   0.000000	 108.230335	   0.000000; % NG
	2	 0.0	 0.0	 3	   0.000000	  29.173886	   0.000000; % COW
	2	 0.0	 0.0	 3	   0.000000	  34.373029	   0.000000; % COW
	2	 0.0	 0.0	 3	   0.000000	  47.096869	   0.000000; % NG
	2	 0.0	 0.0	 3	   0.000000	  30.927221	   0.000000; % PEL
	2	 0.0	 0.0	 3	   0.000000	  34.476474	   0.000000; % SYNC
	2	 0.0	 0.0	 3	   0.000000	  17.075049	   0.000000; % COW
	2	 0.0	 0.0	 3	   0.000000	  41.084275	   0.000000; % NG
	2	 0.0	 0.0	 3	   0.000000	  36.997549	   0.000000; % NG
	2	 0.0	 0.0	 3	   0.000000	  47.161573	   0.000000; % NG
	2	 0.0	 0.0	 3	   0.000000	   9.834682	   0.000000; % NG
	2	 0.0	 0.0	 3	   0.000000	  53.715422	   0.000000; % NG
	2	 0.0	 0.0	 3	   0.000000	  34.061291	   0.000000; % NG
	2	 0.0	 0.0	 3	   0.000000	  25.255410	   0.000000; % COW
	2	 0.0	 0.0	 3	   0.000000	  55.892800	   0.000000; % NG
	2	 0.0	 0.0	 3	   0.000000	  19.899324	   0.000000; % NG
	2	 0.0	 0.0	 3	   0.000000	  31.421517	   0.000000; % NG
	2	 0.0	 0.0	 3	   0.000000	  18.958013	   0.000000; % PEL
	2	 0.0	 0.0	 3	   0.000000	  23.103282	   0.000000; % COW
	2	 0.0	 0.0	 3	   0.000000	  40.866196	   0.000000; % PEL
	2	 0.0	 0.0	 3	   0.000000	  31.300609	   0.000000; % NG
	2	 0.0	 0.0	 3	   0.000000	  12.799906	   0.000000; % NG
	2	 0.0	 0.0	 3	   0.000000	  32.800816	   0.000000; % NG
	2	 0.0	 0.0	 3	   0.000000	  27.557401	   0.000000; % COW
	2	 0.0	 0.0	 3	   0.000000	  33.259257	   0.000000; % COW
	2	 0.0	 0.0	 3	   0.000000	  35.557610	   0.000000; % NG
	2	 0.0	 0.0	 3	   0.000000	  26.911611	   0.000000; % NG
	2	 0.0	 0.0	 3	   0.000000	  39.014432	   0.000000; % NG
	2	 0.0	 0.0	 3	   0.000000	   1.071850	   0.000000; % NG
	2	 0.0	 0.0	 3	   0.000000	  25.982049	   0.000000; % COW
	2	 0.0	 0.0	 3	   0.000000	   8.151955	   0.000000; % COW
	2	 0.0	 0.0	 3	   0.000000	  20.162431	   0.000000; % NG
	2	 0.0	 0.0	 3	   0.000000	  33.135441	   0.000000; % NG
	2	 0.0	 0.0	 3	   0.000000	  55.603662	   0.000000; % SYNC
	2	 0.0	 0.0	 3	   0.000000	 118.220193	   0.000000; % NG
	2	 0.0	 0.0	 3	   0.000000	  11.367380	   0.000000; % COW
	2	 0.0	 0.0	 3	   0.000000	  33.103440	   0.000000; % NG
	2	 0.0	 0.0	 3	   0.000000	  47.934404	   0.000000; % NG
	2	 0.0	 0.0	 3	   0.000000	  22.550650	   0.000000; % NG
	2	 0.0	 0.0	 3	   0.000000	  18.177738	   0.000000; % COW
	2	 0.0	 0.0	 3	   0.000000	  43.358057	   0.000000; % COW
	2	 0.0	 0.0	 3	   0.000000	  41.928142	   0.000000; % NG
...
];

%% branch data
%	fbus	tbus	r	x	b	rateA	rateB	rateC	ratio	angle	status	angmin	angmax
mpc.branch = [
	5147	 3097	 0.0006	 0.00616	 0.0	 823.0	 5104.0	 5104.0	 0.0	 0.0	 1	 -30.0	 30.0;
	5147	 8763	 0.0005	 0.0074	 0.0	 921.0	 4259.0	 4259.0	 0.0	 0.0	 1	 -30.0	 30.0;
	2169	 3124	 0.00107	 0.00626	 0.0	 476.0	 4974.0	 4974.0	 0.0	 0.0	 1	 -30.0	 30.0;
	2169	 3234	 0.000841	 0.0055	 0.0	 476.0	 5678.0	 5678.0	 0.0	 0.0	 1	 -30.0	 30.0;
	3517	 711	 0.00143	 0.01563	 0.0	 1645.0	 2013.0	 2013.0	 0.0	 0.0	 1	 -30.0	 30.0;
	3517	 4533	 0.00146	 0.01692	 0.0	 1711.0	 2838.0	 2838.0	 0.0	 0.0	 1	 -30.0	 30.0;
	427	 5425	 7e-05	 0.00057	 0.0	 1711.0	 55004.0	 55004.0	 0.0	 0.0	 1	 -30.0	 30.0;
	427	 4704	 6e-05	 0.00056	 0.0	 1514.0	 56085.0	 56085.0	 0.0	 0.0	 1	 -30.0	 30.0;
	5960	 7431	 0.003349	 0.01656	 0.0	 1870.0	 1870.0	 1870.0	 0.0	 0.0	 1	 -30.0	 30.0;
	5960	 3186	 0.003409	 0.016211	 0.0	 1907.0	 1907.0	 1907.0	 0.0	 0.0	 1	 -30.0	 30.0;
	4481	 7431	 0.003479	 0.01586	 0.0	 1946.0	 1946.0	 1946.0	 0.0	 0.0	 1	 -30.0	 30.0;
	4481	 3186	 0.003099	 0.017969	 0.0	 1733.0	 1733.0	 1733.0	 0.0	 0.0	 1	 -30.0	 30.0;
	531	 9203	 0.00127	 0.01842	 0.0	 823.0	 1711.0	 1711.0	 0.0	 0.0	 1	 -30.0	 30.0;
	531	 835	 0.00126	 0.01847	 0.0	 1547.0	 1707.0	 1707.0	 0.0	 0.0	 1	 -30.0	 30.0;
	1656	 118	 0.0013	 0.01808	 0.0	 1218.0	 1743.0	 1743.0	 0.0	 0.0	 1	 -30.0	 30.0;
	1656	 3449	 0.00131	 0.01765	 0.0	 1744.0	 1785.0	 1785.0	 0.0	 0.0	 1	 -30.0	 30.0;
	5084	 1809	 0.00065	 0.01311	 0.0	 2407.0	 2407.0	 2407.0	 0.0	 0.0	 1	 -30.0	 30.0;
	5084	 6398	 0.00067	 0.00974	 0.0	 2598.0	 3236.0	 3236.0	 0.0	 0.0	 1	 -30.0	 30.0;
	5205	 7833	 0.00236	 0.01418	 0.0	 553.0	 2198.0	 2198.0	 0.0	 0.0	 1	 -30.0	 30.0;
	5205	 7770	 0.002169	 0.015909	 0.0	 514.0	 1968.0	 1968.0	 0.0	 0.0	 1	 -30.0	 30.0;
	354	 1278	 0.00027	 0.00254	 0.0	 1349.0	 12367.0	 12367.0	 0.0	 0.0	 1	 -30.0	 30.0;
	354	 7617	 0.00027	 0.00259	 0.0	 1119.0	 12131.0	 12131.0	 0.0	 0.0	 1	 -30.0	 30.0;
	2611	 1278	 0.00033	 0.00302	 0.0	 1448.0	 10398.0	 10398.0	 0.0	 0.0	 1	 -30.0	 30.0;
	2611	 905	 0.00029	 0.00312	 0.0	 1613.0	 10081.0	 10081.0	 0.0	 0.0	 1	 -30.0	 30.0;
	1842	 6542	 0.000289	 0.00137	 0.0	 533.0	 22560.0	 22560.0	 0.0	 0.0	 1	 -30.0	 30.0;
	1842	 7622	 0.000219	 0.00263	 0.0	 11969.0	 11969.0	 11969.0	 0.0	 0.0	 1	 -30.0	 30.0;
	2134	 6542	 0.000289	 0.001341	 0.0	 457.0	 23027.0	 23027.0	 0.0	 0.0	 1	 -30.0	 30.0;
	2134	 8785	 0.000229	 0.00257	 0.0	 12243.0	 12243.0	 12243.0	 0.0	 0.0	 1	 -30.0	 30.0;
	6613	 6542	 0.000841	 0.00689	 0.0	 514.0	 4551.0	 4551.0	 0.0	 0.0	 1	 -30.0	 30.0;
	6613	 1651	 0.000979	 0.00586	 0.0	 495.0	 5317.0	 5317.0	 0.0	 0.0	 1	 -30.0	 30.0;
	5773	 6542	 0.00014	 0.0012	 0.0	 26146.0	 26146.0	 26146.0	 0.0	 0.0	 1	 -30.0	 30.0;
	5773	 7840	 0.000211	 0.001539	 0.0	 20335.0	 20335.0	 20335.0	 0.0	 0.0	 1	 -30.0	 30.0;
	5214	 6542	 0.000401	 0.004901	 0.0	 6424.0	 6424.0	 6424.0	 0.0	 0.0	 1	 -30.0	 30.0;
	5214	 7840	 0.000219	 0.00151	 0.0	 533.0	 20703.0	 20703.0	 0.0	 0.0	 1	 -30.0	 30.0;
	8072	 6542	 0.000729	 0.004539	 0.0	 495.0	 6872.0	 6872.0	 0.0	 0.0	 1	 -30.0	 30.0;
	8072	 2759	 0.00062	 0.00482	 0.0	 495.0	 6500.0	 6500.0	 0.0	 0.0	 1	 -30.0	 30.0;
	2971	 6069	 0.00052	 0.00407	 0.0	 1481.0	 7699.0	 7699.0	 0.0	 0.0	 1	 -30.0	 30.0;
	2971	 3445	 0.00034	 0.00502	 0.0	 1843.0	 6278.0	 6278.0	 0.0	 0.0	 1	 -30.0	 30.0;
	7561	 6069	 0.00065	 0.00698	 0.0	 1711.0	 4506.0	 4506.0	 0.0	 0.0	 1	 -30.0	 30.0;
	7561	 8825	 0.00059	 0.00806	 0.0	 1678.0	 3909.0	 3909.0	 0.0	 0.0	 1	 -30.0	 30.0;
	6748	 8864	 0.00063	 0.00464	 0.0	 495.0	 6746.0	 6746.0	 0.0	 0.0	 1	 -30.0	 30.0;
	6748	 5078	 0.000599	 0.005099	 0.0	 533.0	 6153.0	 6153.0	 0.0	 0.0	 1	 -30.0	 30.0;
	4956	 4785	 0.00064	 0.00307	 0.0	 10073.0	 10073.0	 10073.0	 0.0	 0.0	 1	 -30.0	 30.0;
	4956	 7667	 0.000659	 0.003	 0.0	 10284.0	 10284.0	 10284.0	 0.0	 0.0	 1	 -30.0	 30.0;
	8619	 6775	 0.00053	 0.00528	 0.0	 1086.0	 5953.0	 5953.0	 0.0	 0.0	 1	 -30.0	 30.0;
	8619	 8195	 0.00056	 0.0053	 0.0	 1283.0	 5927.0	 5927.0	 0.0	 0.0	 1	 -30.0	 30.0;
	3107	 4785	 0.0018	 0.007919	 0.0	 3890.0	 3890.0	 3890.0	 0.0	 0.0	 1	 -30.0	 30.0;
	3107	 7154	 0.001651	 0.00862	 0.0	 3600.0	 3600.0	 3600.0	 0.0	 0.0	 1	 -30.0	 30.0;
	5437	 6775	 0.00045	 0.00545	 0.0	 1382.0	 5777.0	 5777.0	 0.0	 0.0	 1	 -30.0	 30.0;
	5437	 905	 0.00052	 0.00476	 0.0	 1547.0	 6597.0	 6597.0	 0.0	 0.0	 1	 -30.0	 30.0;
	2282	 6876	 0.01286	 0.037421	 0.0	 799.0	 799.0	 799.0	 0.0	 0.0	 1	 -30.0	 30.0;
	2282	 5654	 0.032397	 0.123	 0.0	 249.0	 249.0	 249.0	 0.0	 0.0	 1	 -30.0	 30.0;
	474	 6876	 0.032851	 0.069727	 0.0	 410.0	 410.0	 410.0	 0.0	 0.0	 1	 -30.0	 30.0;
	474	 8045	 0.059942	 0.112802	 0.0	 248.0	 248.0	 248.0	 0.0	 0.0	 1	 -30.0	 30.0;
	7917	 7472	 0.00011	 0.00109	 0.0	 1086.0	 28833.0	 28833.0	 0.0	 0.0	 1	 -30.0	 30.0;
	7917	 8899	 0.00011	 0.00107	 0.0	 1185.0	 29367.0	 29367.0	 0.0	 0.0	 1	 -30.0	 30.0;
	6225	 7681	 0.000461	 0.00395	 0.0	 629.0	 7943.0	 7943.0	 0.0	 0.0	 1	 -30.0	 30.0;
	6225	 1508	 0.000599	 0.003789	 0.0	 591.0	 8235.0	 8235.0	 0.0	 0.0	 1	 -30.0	 30.0;
	7118	 6568	 0.00173	 0.01542	 0.0	 987.0	 2844.0	 2844.0	 0.0	 0.0	 1	 -30.0	 30.0;
	7118	 4346	 0.00166	 0.02083	 0.0	 1119.0	 2112.0	 2112.0	 0.0	 0.0	 1	 -30.0	 30.0;
	3469	 8850	 0.006314	 0.018488	 0.0	 1617.0	 1617.0	 1617.0	 0.0	 0.0	 1	 -30.0	 30.0;
	3469	 1997	 0.015727	 0.037669	 0.0	 774.0	 774.0	 774.0	 0.0	 0.0	 1	 -30.0	 30.0;
	7556	 7058	 0.00374	 0.02095	 0.0	 800.0	 1485.0	 1485.0	 0.0	 0.0	 1	 -30.0	 30.0;
	7556	 4324	 0.00511	 0.019461	 0.0	 800.0	 1570.0	 1570.0	 0.0	 0.0	 1	 -30.0	 30.0;
	1069	 2867	 0.011281	 0.050771	 0.0	 457.0	 608.0	 608.0	 0.0	 0.0	 1	 -30.0	 30.0;
	1069	 2588	 0.0115	 0.049719	 0.0	 438.0	 619.0	 619.0	 0.0	 0.0	 1	 -30.0	 30.0;
	3945	 2867	 0.011719	 0.048659	 0.0	 438.0	 632.0	 632.0	 0.0	 0.0	 1	 -30.0	 30.0;
	3945	 2588	 0.01193	 0.047599	 0.0	 438.0	 644.0	 644.0	 0.0	 0.0	 1	 -30.0	 30.0;
	132	 2962	 0.00064	 0.00715	 0.0	 1481.0	 4401.0	 4401.0	 0.0	 0.0	 1	 -30.0	 30.0;
	132	 4393	 0.00089	 0.00712	 0.0	 1283.0	 4403.0	 4403.0	 0.0	 0.0	 1	 -30.0	 30.0;
	5044	 693	 0.00048	 0.00555	 0.0	 987.0	 5671.0	 5671.0	 0.0	 0.0	 1	 -30.0	 30.0;
	5044	 7860	 0.00047	 0.00566	 0.0	 1086.0	 5562.0	 5562.0	 0.0	 0.0	 1	 -30.0	 30.0;
	6883	 693	 0.00046	 0.00524	 0.0	 1053.0	 6006.0	 6006.0	 0.0	 0.0	 1	 -30.0	 30.0;
	6883	 7860	 0.00052	 0.00514	 0.0	 1053.0	 6115.0	 6115.0	 0.0	 0.0	 1	 -30.0	 30.0;
	1456	 4503	 0.00438	 0.010686	 0.0	 2736.0	 2736.0	 2736.0	 0.0	 0.0	 1	 -30.0	 30.0;
	1456	 6658	 0.031347	 0.062653	 0.0	 451.0	 451.0	 451.0	 0.0	 0.0	 1	 -30.0	 30.0;
	6494	 4945	 0.00029	 0.00298	 0.0	 1613.0	 10550.0	 10550.0	 0.0	 0.0	 1	 -30.0	 30.0;
	6494	 6080	 0.0003	 0.00291	 0.0	 1514.0	 10798.0	 10798.0	 0.0	 0.0	 1	 -30.0	 30.0;
	1384	 9010	 0.00155	 0.01529	 0.0	 1185.0	 3137.0	 3137.0	 0.0	 0.0	 1	 -30.0	 30.0;
	1384	 3146	 0.00148	 0.0152	 0.0	 1283.0	 2889.0	 2889.0	 0.0	 0.0	 1	 -30.0	 30.0;
	8697	 8142	 0.000169	 0.00096	 0.0	 312.0	 32406.0	 32406.0	 0.0	 0.0	 1	 -30.0	 30.0;
	8697	 6195	 0.000182	 0.000942	 0.0	 312.0	 32924.0	 32924.0	 0.0	 0.0	 1	 -30.0	 30.0;
	5665	 424	 0.00016	 0.00184	 0.0	 17103.0	 17103.0	 17103.0	 0.0	 0.0	 1	 -30.0	 30.0;
	5665	 7235	 0.00022	 0.00287	 0.0	 10974.0	 10974.0	 10974.0	 0.0	 0.0	 1	 -30.0	 30.0;
	3852	 6497	 0.00015	 0.00187	 0.0	 16838.0	 16838.0	 16838.0	 0.0	 0.0	 1	 -30.0	 30.0;
	3852	 4779	 0.00022	 0.00266	 0.0	 11835.0	 11835.0	 11835.0	 0.0	 0.0	 1	 -30.0	 30.0;
	674	 8885	 0.00138	 0.0174	 0.0	 1316.0	 2528.0	 2528.0	 0.0	 0.0	 1	 -30.0	 30.0;
	674	 3115	 0.00272	 0.0288	 0.0	 1086.0	 1667.0	 1667.0	 0.0	 0.0	 1	 -30.0	 30.0;
	8126	 5177	 0.00065	 0.01024	 0.0	 1843.0	 3079.0	 3079.0	 0.0	 0.0	 1	 -30.0	 30.0;
	8126	 6007	 0.00073	 0.01004	 0.0	 1876.0	 3138.0	 3138.0	 0.0	 0.0	 1	 -30.0	 30.0;
	8935	 5177	 0.00075	 0.00983	 0.0	 1909.0	 3205.0	 3205.0	 0.0	 0.0	 1	 -30.0	 30.0;
	8935	 6007	 0.00076	 0.00963	 0.0	 1909.0	 3270.0	 3270.0	 0.0	 0.0	 1	 -30.0	 30.0;
	7146	 7388	 0.00042	 0.02666	 0.0	 1185.0	 1185.0	 1185.0	 0.0	 0.0	 1	 -30.0	 30.0;
	4003	 8855	 0.00029	 0.0026	 0.0	 12075.0	 12075.0	 12075.0	 0.0	 0.0	 1	 -30.0	 30.0;
	4003	 5781	 0.00022	 0.00303	 0.0	 1185.0	 10398.0	 10398.0	 0.0	 0.0	 1	 -30.0	 30.0;
	6996	 3761	 0.001	 0.006159	 0.0	 5063.0	 5063.0	 5063.0	 0.0	 0.0	 1	 -30.0	 30.0;
	6996	 9108	 0.00113	 0.00657	 0.0	 533.0	 4739.0	 4739.0	 0.0	 0.0	 1	 -30.0	 30.0;
	1212	 8258	 0.0013	 0.01277	 0.0	 1316.0	 3438.0	 3438.0	 0.0	 0.0	 1	 -30.0	 30.0;
	1212	 7330	 0.00163	 0.01808	 0.0	 1382.0	 2431.0	 2431.0	 0.0	 0.0	 1	 -30.0	 30.0;
	8644	 106	 0.00047	 0.00406	 0.0	 1316.0	 10795.0	 10795.0	 0.0	 0.0	 1	 -30.0	 30.0;
	8644	 5883	 0.00235	 0.02343	 0.0	 1316.0	 1874.0	 1874.0	 0.0	 0.0	 1	 -30.0	 30.0;
	97	 6413	 0.00036	 0.00445	 0.0	 1547.0	 7076.0	 7076.0	 0.0	 0.0	 1	 -30.0	 30.0;
	97	 1644	 0.00017	 0.0025	 0.0	 1909.0	 12606.0	 12606.0	 0.0	 0.0	 1	 -30.0	 30.0;
	4379	 6413	 0.00036	 0.00436	 0.0	 1580.0	 7221.0	 7221.0	 0.0	 0.0	 1	 -30.0	 30.0;
	4379	 3483	 0.00017	 0.00255	 0.0	 1810.0	 12360.0	 12360.0	 0.0	 0.0	 1	 -30.0	 30.0;
	1885	 3208	 0.00096	 0.00995	 0.0	 1349.0	 3160.0	 3160.0	 0.0	 0.0	 1	 -30.0	 30.0;
	1885	 6790	 0.00152	 0.01949	 0.0	 1382.0	 1616.0	 1616.0	 0.0	 0.0	 1	 -30.0	 30.0;
	5314	 3208	 0.00094	 0.01014	 0.0	 1251.0	 3102.0	 3102.0	 0.0	 0.0	 1	 -30.0	 30.0;
	5314	 6790	 0.00149	 0.01986	 0.0	 1415.0	 1587.0	 1587.0	 0.0	 0.0	 1	 -30.0	 30.0;
	2885	 3208	 0.00107	 0.01243	 0.0	 1152.0	 2532.0	 2532.0	 0.0	 0.0	 1	 -30.0	 30.0;
	2885	 2585	 0.00102	 0.01034	 0.0	 1218.0	 4639.0	 4639.0	 0.0	 0.0	 1	 -30.0	 30.0;
	3717	 4848	 0.0047	 0.02061	 0.0	 438.0	 1495.0	 1495.0	 0.0	 0.0	 1	 -30.0	 30.0;
	3717	 3688	 0.00739	 0.040531	 0.0	 400.0	 767.0	 767.0	 0.0	 0.0	 1	 -30.0	 30.0;
	6064	 8640	 0.00049	 0.00611	 0.0	 1942.0	 7198.0	 7198.0	 0.0	 0.0	 1	 -30.0	 30.0;
	6064	 7330	 0.00035	 0.00431	 0.0	 1547.0	 10203.0	 10203.0	 0.0	 0.0	 1	 -30.0	 30.0;
	5377	 1029	 0.00261	 0.01344	 0.0	 419.0	 2308.0	 2308.0	 0.0	 0.0	 1	 -30.0	 30.0;
	5377	 3525	 0.003521	 0.019591	 0.0	 419.0	 1587.0	 1587.0	 0.0	 0.0	 1	 -30.0	 30.0;
	6870	 3431	 0.0025	 0.01419	 0.0	 2193.0	 2193.0	 2193.0	 0.0	 0.0	 1	 -30.0	 30.0;
	6870	 5046	 0.00287	 0.0237	 0.0	 381.0	 1324.0	 1324.0	 0.0	 0.0	 1	 -30.0	 30.0;
	6693	 6743	 0.00088	 0.00956	 0.0	 1547.0	 3291.0	 3291.0	 0.0	 0.0	 1	 -30.0	 30.0;
	6693	 287	 0.00095	 0.00877	 0.0	 1382.0	 3581.0	 3581.0	 0.0	 0.0	 1	 -30.0	 30.0;
	2053	 752	 0.00332	 0.020651	 0.0	 457.0	 1511.0	 1511.0	 0.0	 0.0	 1	 -30.0	 30.0;
	2053	 3048	 0.003969	 0.018781	 0.0	 457.0	 1646.0	 1646.0	 0.0	 0.0	 1	 -30.0	 30.0;
	2893	 2738	 0.002849	 0.014909	 0.0	 438.0	 2082.0	 2082.0	 0.0	 0.0	 1	 -30.0	 30.0;
	2893	 1575	 0.00439	 0.02451	 0.0	 438.0	 1269.0	 1269.0	 0.0	 0.0	 1	 -30.0	 30.0;
	1524	 8687	 0.0002	 0.0018	 0.0	 17442.0	 17442.0	 17442.0	 0.0	 0.0	 1	 -30.0	 30.0;
	1524	 8393	 0.00025	 0.00261	 0.0	 12048.0	 12048.0	 12048.0	 0.0	 0.0	 1	 -30.0	 30.0;
	7369	 8687	 0.0002	 0.00176	 0.0	 17833.0	 17833.0	 17833.0	 0.0	 0.0	 1	 -30.0	 30.0;
	7369	 139	 0.00025	 0.00255	 0.0	 1909.0	 12329.0	 12329.0	 0.0	 0.0	 1	 -30.0	 30.0;
	1019	 6176	 0.012488	 0.047413	 0.0	 645.0	 645.0	 645.0	 0.0	 0.0	 1	 -30.0	 30.0;
	1019	 7177	 0.010479	 0.027711	 0.0	 1067.0	 1067.0	 1067.0	 0.0	 0.0	 1	 -30.0	 30.0;
	2607	 7458	 0.00044	 0.00428	 0.0	 1810.0	 7342.0	 7342.0	 0.0	 0.0	 1	 -30.0	 30.0;
	2607	 1337	 0.00036	 0.00475	 0.0	 6631.0	 6631.0	 6631.0	 0.0	 0.0	 1	 -30.0	 30.0;
	4735	 5239	 0.00058	 0.00534	 0.0	 1876.0	 5881.0	 5881.0	 0.0	 0.0	 1	 -30.0	 30.0;
	4735	 3145	 0.00054	 0.00589	 0.0	 1843.0	 5341.0	 5341.0	 0.0	 0.0	 1	 -30.0	 30.0;
	2941	 1429	 0.00206	 0.02057	 0.0	 1152.0	 1528.0	 1528.0	 0.0	 0.0	 1	 -30.0	 30.0;
	2941	 1542	 0.00077	 0.00872	 0.0	 954.0	 3609.0	 3609.0	 0.0	 0.0	 1	 -30.0	 30.0;
	3773	 9183	 0.00161	 0.01963	 0.0	 1349.0	 1604.0	 1604.0	 0.0	 0.0	 1	 -30.0	 30.0;
	3773	 1542	 0.00075	 0.00888	 0.0	 1382.0	 3545.0	 3545.0	 0.0	 0.0	 1	 -30.0	 30.0;
	1937	 7261	 0.00016	 0.00152	 0.0	 1645.0	 20667.0	 20667.0	 0.0	 0.0	 1	 -30.0	 30.0;
	1937	 5479	 0.00019	 0.00163	 0.0	 1711.0	 19249.0	 19249.0	 0.0	 0.0	 1	 -30.0	 30.0;
	5473	 7261	 0.00015	 0.0016	 0.0	 1547.0	 19656.0	 19656.0	 0.0	 0.0	 1	 -30.0	 30.0;
	5473	 5479	 0.00015	 0.00183	 0.0	 1645.0	 17204.0	 17204.0	 0.0	 0.0	 1	 -30.0	 30.0;
	3648	 3290	 0.00121	 0.01426	 0.0	 1415.0	 2208.0	 2208.0	 0.0	 0.0	 1	 -30.0	 30.0;
	3648	 5523	 0.00116	 0.01456	 0.0	 1448.0	 2163.0	 2163.0	 0.0	 0.0	 1	 -30.0	 30.0;
	451	 144	 0.00068	 0.00727	 0.0	 1777.0	 4327.0	 4327.0	 0.0	 0.0	 1	 -30.0	 30.0;
	451	 1601	 0.0007	 0.00734	 0.0	 1876.0	 4285.0	 4285.0	 0.0	 0.0	 1	 -30.0	 30.0;
	7898	 144	 0.00076	 0.00712	 0.0	 1580.0	 4412.0	 4412.0	 0.0	 0.0	 1	 -30.0	 30.0;
	7898	 1601	 0.0008	 0.00719	 0.0	 1909.0	 4367.0	 4367.0	 0.0	 0.0	 1	 -30.0	 30.0;
	2105	 1582	 0.0002	 0.0022	 0.0	 1218.0	 14299.0	 14299.0	 0.0	 0.0	 1	 -30.0	 30.0;
	2105	 7416	 0.0002	 0.0022	 0.0	 1251.0	 14299.0	 14299.0	 0.0	 0.0	 1	 -30.0	 30.0;
	270	 2046	 0.000205	 0.00215	 0.0	 1415.0	 14626.0	 14626.0	 0.0	 0.0	 1	 -30.0	 30.0;
	270	 7416	 0.000205	 0.00215	 0.0	 1448.0	 14626.0	 14626.0	 0.0	 0.0	 1	 -30.0	 30.0;
	5938	 8433	 0.00053	 0.00589	 0.0	 1316.0	 5342.0	 5342.0	 0.0	 0.0	 1	 -30.0	 30.0;
	5938	 816	 0.00046	 0.00675	 0.0	 1119.0	 4669.0	 4669.0	 0.0	 0.0	 1	 -30.0	 30.0;
	8539	 8433	 0.00054	 0.00577	 0.0	 1316.0	 5451.0	 5451.0	 0.0	 0.0	 1	 -30.0	 30.0;
	8539	 816	 0.00045	 0.00625	 0.0	 1086.0	 5041.0	 5041.0	 0.0	 0.0	 1	 -30.0	 30.0;
	1654	 1544	 0.00275	 0.02752	 0.0	 1382.0	 1596.0	 1596.0	 0.0	 0.0	 1	 -30.0	 30.0;
	1654	 7674	 0.00184	 0.01515	 0.0	 1316.0	 2891.0	 2891.0	 0.0	 0.0	 1	 -30.0	 30.0;
	2323	 4150	 0.00438	 0.02432	 0.0	 1279.0	 1279.0	 1279.0	 0.0	 0.0	 1	 -30.0	 30.0;
	2323	 599	 0.0043	 0.01949	 0.0	 1583.0	 1583.0	 1583.0	 0.0	 0.0	 1	 -30.0	 30.0;
	8376	 6999	 0.00033	 0.00269	 0.0	 1218.0	 16279.0	 16279.0	 0.0	 0.0	 1	 -30.0	 30.0;
	8376	 4903	 0.00243	 0.01904	 0.0	 1119.0	 2299.0	 2299.0	 0.0	 0.0	 1	 -30.0	 30.0;
	942	 6999	 0.00034	 0.00263	 0.0	 1119.0	 16637.0	 16637.0	 0.0	 0.0	 1	 -30.0	 30.0;
	942	 4903	 0.00248	 0.01864	 0.0	 1086.0	 2347.0	 2347.0	 0.0	 0.0	 1	 -30.0	 30.0;
	6754	 6190	 0.00122	 0.01249	 0.0	 987.0	 2518.0	 2518.0	 0.0	 0.0	 1	 -30.0	 30.0;
	6754	 4055	 0.00106	 0.01031	 0.0	 1053.0	 3048.0	 3048.0	 0.0	 0.0	 1	 -30.0	 30.0;
	3313	 6190	 0.00119	 0.01273	 0.0	 987.0	 2471.0	 2471.0	 0.0	 0.0	 1	 -30.0	 30.0;
	3313	 4055	 0.00108	 0.01009	 0.0	 1086.0	 3113.0	 3113.0	 0.0	 0.0	 1	 -30.0	 30.0;
	1383	 4401	 0.001039	 0.013711	 0.0	 2298.0	 2298.0	 2298.0	 0.0	 0.0	 1	 -30.0	 30.0;
	1383	 5145	 0.00114	 0.011409	 0.0	 2755.0	 2755.0	 2755.0	 0.0	 0.0	 1	 -30.0	 30.0;
	7851	 5878	 0.001021	 0.013969	 0.0	 2256.0	 2256.0	 2256.0	 0.0	 0.0	 1	 -30.0	 30.0;
	7851	 5145	 0.001169	 0.011159	 0.0	 2816.0	 2816.0	 2816.0	 0.0	 0.0	 1	 -30.0	 30.0;
	8001	 8201	 0.0	 0.000271	 0.0	 116559.0	 116559.0	 116559.0	 0.0	 0.0	 1	 -30.0	 30.0;
	2322	 8201	 0.0	 0.000271	 0.0	 116559.0	 116559.0	 116559.0	 0.0	 0.0	 1	 -30.0	 30.0;
	843	 154	 0.009372	 0.035702	 0.0	 856.0	 856.0	 856.0	 0.0	 0.0	 1	 -30.0	 30.0;
	843	 3598	 0.029157	 0.103686	 0.0	 294.0	 294.0	 294.0	 0.0	 0.0	 1	 -30.0	 30.0;
...